LTspice 24.0.9 for Windows
Circuit: * C:\Users\Andris\Downloads\TL431\TL431_test.asc
Start Time: Sun Nov  2 20:15:40 2025
solver = Normal
Maximum thread count: 12
tnom = 27
temp = 27
method = modified trap
Direct Newton iteration for .op point succeeded.
Total elapsed time: 0.126 seconds.

