LTspice 24.1.10 for Windows
Circuit: C:\Users\SNA1BP\Documents\Masters-thesis\LTspice\Debounce.net
Start Time: Mon Nov 24 11:19:37 2025
solver = Normal
Maximum thread count: 12
tnom = 27
temp = 27
method = modified trap
Direct Newton iteration for .op point succeeded.
Total elapsed time: 0.128 seconds.

Files loaded:
C:\Users\SNA1BP\Documents\Masters-thesis\LTspice\Debounce.net
C:\Users\SNA1BP\AppData\Local\LTspice\lib\cmp\standard.mos

