Circuit: * C:\Users\SNA1BP\Documents\Masters-thesis\LTspice\Numpad.asc

WARNING: Node N005 is floating.
WARNING: Node N008 is floating.
WARNING: Node N011 is floating.
WARNING: Node N014 is floating.
WARNING: Node N017 is floating.
WARNING: Node N020 is floating.
WARNING: Node N023 is floating.
WARNING: Node N026 is floating.
WARNING: Node N029 is floating.
WARNING: Node N032 is floating.

Direct Newton iteration failed to find .op point.  (Use ".option noopiter" to skip.)
Starting Gmin stepping
Gmin = 10
Gmin = 1.07374
Gmin = 0.115292
Gmin = 0.0123794
Gmin = 0.00132923
Gmin = 0.000142725
Gmin = 1.5325e-05
Gmin = 1.6455e-06
Gmin = 1.76685e-07
vernier = 0.5
Gmin = 2.96428e-08
vernier = 0.25
vernier = 0.125
vernier = 0.0625
Gmin = 2.36777e-08
vernier = 0.03125
vernier = 0.0416667
Gmin = 2.21908e-08
vernier = 0.0555555
vernier = 0.0277778
vernier = 0.037037
Gmin = 2.08037e-08
vernier = 0.0493827
vernier = 0.0246913
Gmin = 1.95034e-08
vernier = 0.0329218
vernier = 0.0438957
vernier = 0.0219478
Gmin = 1.83403e-08
vernier = 0.0292638
Gmin = 1.72066e-08
vernier = 0.0390184
vernier = 0.0195092
vernier = 0.0260122
Gmin = 1.64564e-08
vernier = 0.034683
vernier = 0.0173415
Gmin = 1.57601e-08
vernier = 0.023122
vernier = 0.0308293
vernier = 0.0154146
Gmin = 1.51005e-08
vernier = 0.0205529
Gmin = 1.44196e-08
vernier = 0.0274038
vernier = 0.0365384
vernier = 0.0182692
Gmin = 1.37153e-08
vernier = 0.0243589
vernier = 0.0324786
Gmin = 1.294e-08
vernier = 0.0162393
vernier = 0.0216524
Gmin = 1.25104e-08
vernier = 0.0288698
vernier = 0.0384931
Gmin = 1.16285e-08
vernier = 0.0513241
Gmin = 1.03673e-08
vernier = 0.0684321
vernier = 0.0912428
Gmin = 8.5562e-09
vernier = 0.121657
vernier = 0.162209
Gmin = 6.3109e-09
vernier = 0.216279
Gmin = 3.92482e-09
vernier = 0.288372
vernier = 0.384496
Gmin = 1.79055e-09
vernier = 0.512661
vernier = 0.683548
Gmin = 5.27231e-10
vernier = 0.911397
Gmin = 8.18598e-11
vernier = 1
Gmin = 8.78963e-12
Gmin = 9.43779e-13
Gmin = 1.01338e-13
Gmin = 0
Gmin stepping succeeded in finding the operating point.

.step x=0
.step x=1
.step x=2
.step x=3
.step x=4
.step x=5
.step x=6
.step x=7
.step x=8
.step x=9
.step x=10
.step x=11
.step x=12
.step x=13
.step x=14
.step x=15
.step x=16
.step x=17
.step x=18
.step x=19
.step x=20
.step x=21
.step x=22
.step x=23
.step x=24
.step x=25
.step x=26
.step x=27
.step x=28
.step x=29
.step x=30
.step x=31
.step x=32
.step x=33
.step x=34
.step x=35
.step x=36
.step x=37
.step x=38
.step x=39
.step x=40
.step x=41
.step x=42
.step x=43
.step x=44
.step x=45
.step x=46
.step x=47
.step x=48
.step x=49
.step x=50
.step x=51
.step x=52
.step x=53
.step x=54
.step x=55
.step x=56
.step x=57
.step x=58
.step x=59
.step x=60
.step x=61
.step x=62
.step x=63
.step x=64
.step x=65
.step x=66
.step x=67
.step x=68
.step x=69
.step x=70
.step x=71
.step x=72
.step x=73
.step x=74
.step x=75
.step x=76
.step x=77
.step x=78
.step x=79
.step x=80
.step x=81
.step x=82
.step x=83
.step x=84
.step x=85
.step x=86
.step x=87
.step x=88
.step x=89
.step x=90
.step x=91
.step x=92
.step x=93
.step x=94
.step x=95
.step x=96
.step x=97
.step x=98
.step x=99
.step x=100
.step x=101
.step x=102
.step x=103
.step x=104
.step x=105
.step x=106
.step x=107
.step x=108
.step x=109
.step x=110
.step x=111
.step x=112
.step x=113
.step x=114
.step x=115
.step x=116
.step x=117
.step x=118
.step x=119
.step x=120
.step x=121
.step x=122
.step x=123
.step x=124
.step x=125
.step x=126
.step x=127
.step x=128
.step x=129
.step x=130
.step x=131
.step x=132
.step x=133
.step x=134
.step x=135
.step x=136
.step x=137
.step x=138
.step x=139
.step x=140
.step x=141
.step x=142
.step x=143
.step x=144
.step x=145
.step x=146
.step x=147
.step x=148
.step x=149
.step x=150
.step x=151
.step x=152
.step x=153
.step x=154
.step x=155
.step x=156
.step x=157
.step x=158
.step x=159
.step x=160
.step x=161
.step x=162
.step x=163
.step x=164
.step x=165
.step x=166
.step x=167
.step x=168
.step x=169
.step x=170
.step x=171
.step x=172
.step x=173
.step x=174
.step x=175
.step x=176
.step x=177
.step x=178
.step x=179
.step x=180
.step x=181
.step x=182
.step x=183
.step x=184
.step x=185
.step x=186
.step x=187
.step x=188
.step x=189
.step x=190
.step x=191
.step x=192
.step x=193
.step x=194
.step x=195
.step x=196
.step x=197
.step x=198
.step x=199
.step x=200
.step x=201
.step x=202
.step x=203
.step x=204
.step x=205
.step x=206
.step x=207
.step x=208
.step x=209
.step x=210
.step x=211
.step x=212
.step x=213
.step x=214
.step x=215
.step x=216
.step x=217
.step x=218
.step x=219
.step x=220
.step x=221
.step x=222
.step x=223
.step x=224
.step x=225
.step x=226
.step x=227
.step x=228
.step x=229
.step x=230
.step x=231
.step x=232
.step x=233
.step x=234
.step x=235
.step x=236
.step x=237
.step x=238
.step x=239
.step x=240
.step x=241
.step x=242
.step x=243
.step x=244
.step x=245
.step x=246
.step x=247
.step x=248
.step x=249
.step x=250
.step x=251
.step x=252
.step x=253
.step x=254
.step x=255
.step x=256
.step x=257
.step x=258
.step x=259
.step x=260
.step x=261
.step x=262
.step x=263
.step x=264
.step x=265
.step x=266
.step x=267
.step x=268
.step x=269
.step x=270
.step x=271
.step x=272
.step x=273
.step x=274
.step x=275
.step x=276
.step x=277
.step x=278
.step x=279
.step x=280
.step x=281
.step x=282
.step x=283
.step x=284
.step x=285
.step x=286
.step x=287
.step x=288
.step x=289
.step x=290
.step x=291
.step x=292
.step x=293
.step x=294
.step x=295
.step x=296
.step x=297
.step x=298
.step x=299
.step x=300
.step x=301
.step x=302
.step x=303
.step x=304
.step x=305
.step x=306
.step x=307
.step x=308
.step x=309
.step x=310
.step x=311
.step x=312
.step x=313
.step x=314
.step x=315
.step x=316
.step x=317
.step x=318
.step x=319
.step x=320
.step x=321
.step x=322
.step x=323
.step x=324
.step x=325
.step x=326
.step x=327
.step x=328
.step x=329
.step x=330
.step x=331
.step x=332
.step x=333
.step x=334
.step x=335
.step x=336
.step x=337
.step x=338
.step x=339
.step x=340
.step x=341
.step x=342
.step x=343
.step x=344
.step x=345
.step x=346
.step x=347
.step x=348
.step x=349
.step x=350
.step x=351
.step x=352
.step x=353
.step x=354
.step x=355
.step x=356
.step x=357
.step x=358
.step x=359
.step x=360
.step x=361
.step x=362
.step x=363
.step x=364
.step x=365
.step x=366
.step x=367
.step x=368
.step x=369
.step x=370
.step x=371
.step x=372
.step x=373
.step x=374
.step x=375
.step x=376
.step x=377
.step x=378
.step x=379
.step x=380
.step x=381
.step x=382
.step x=383
.step x=384
.step x=385
.step x=386
.step x=387
.step x=388
.step x=389
.step x=390
.step x=391
.step x=392
.step x=393
.step x=394
.step x=395
.step x=396
.step x=397
.step x=398
.step x=399
.step x=400
.step x=401
.step x=402
.step x=403
.step x=404
.step x=405
.step x=406
.step x=407
.step x=408
.step x=409
.step x=410
.step x=411
.step x=412
.step x=413
.step x=414
.step x=415
.step x=416
.step x=417
.step x=418
.step x=419
.step x=420
.step x=421
.step x=422
.step x=423
.step x=424
.step x=425
.step x=426
.step x=427
.step x=428
.step x=429
.step x=430
.step x=431
.step x=432
.step x=433
.step x=434
.step x=435
.step x=436
.step x=437
.step x=438
.step x=439
.step x=440
.step x=441
.step x=442
.step x=443
.step x=444
.step x=445
.step x=446
.step x=447
.step x=448
.step x=449
.step x=450
.step x=451
.step x=452
.step x=453
.step x=454
.step x=455
.step x=456
.step x=457
.step x=458
.step x=459
.step x=460
.step x=461
.step x=462
.step x=463
.step x=464
.step x=465
.step x=466
.step x=467
.step x=468
.step x=469
.step x=470
.step x=471
.step x=472
.step x=473
.step x=474
.step x=475
.step x=476
.step x=477
.step x=478
.step x=479
.step x=480
.step x=481
.step x=482
.step x=483
.step x=484
.step x=485
.step x=486
.step x=487
.step x=488
.step x=489
.step x=490
.step x=491
.step x=492
.step x=493
.step x=494
.step x=495
.step x=496
.step x=497
.step x=498
.step x=499
.step x=500
.step x=501
.step x=502
.step x=503
.step x=504
.step x=505
.step x=506
.step x=507
.step x=508
.step x=509
.step x=510
.step x=511
.step x=512
.step x=513
.step x=514
.step x=515
.step x=516
.step x=517
.step x=518
.step x=519
.step x=520
.step x=521
.step x=522
.step x=523
.step x=524
.step x=525
.step x=526
.step x=527
.step x=528
.step x=529
.step x=530
.step x=531
.step x=532
.step x=533
.step x=534
.step x=535
.step x=536
.step x=537
.step x=538
.step x=539
.step x=540
.step x=541
.step x=542
.step x=543
.step x=544
.step x=545
.step x=546
.step x=547
.step x=548
.step x=549
.step x=550
.step x=551
.step x=552
.step x=553
.step x=554
.step x=555
.step x=556
.step x=557
.step x=558
.step x=559
.step x=560
.step x=561
.step x=562
.step x=563
.step x=564
.step x=565
.step x=566
.step x=567
.step x=568
.step x=569
.step x=570
.step x=571
.step x=572
.step x=573
.step x=574
.step x=575
.step x=576
.step x=577
.step x=578
.step x=579
.step x=580
.step x=581
.step x=582
.step x=583
.step x=584
.step x=585
.step x=586
.step x=587
.step x=588
.step x=589
.step x=590
.step x=591
.step x=592
.step x=593
.step x=594
.step x=595
.step x=596
.step x=597
.step x=598
.step x=599
.step x=600
.step x=601
.step x=602
.step x=603
.step x=604
.step x=605
.step x=606
.step x=607
.step x=608
.step x=609
.step x=610
.step x=611
.step x=612
.step x=613
.step x=614
.step x=615
.step x=616
.step x=617
.step x=618
.step x=619
.step x=620
.step x=621
.step x=622
.step x=623
.step x=624
.step x=625
.step x=626
.step x=627
.step x=628
.step x=629
.step x=630
.step x=631
.step x=632
.step x=633
.step x=634
.step x=635
.step x=636
.step x=637
.step x=638
.step x=639
.step x=640
.step x=641
.step x=642
.step x=643
.step x=644
.step x=645
.step x=646
.step x=647
.step x=648
.step x=649
.step x=650
.step x=651
.step x=652
.step x=653
.step x=654
.step x=655
.step x=656
.step x=657
.step x=658
.step x=659
.step x=660
.step x=661
.step x=662
.step x=663
.step x=664
.step x=665
.step x=666
.step x=667
.step x=668
.step x=669
.step x=670
.step x=671
.step x=672
.step x=673
.step x=674
.step x=675
.step x=676
.step x=677
.step x=678
.step x=679
.step x=680
.step x=681
.step x=682
.step x=683
.step x=684
.step x=685
.step x=686
.step x=687
.step x=688
.step x=689
.step x=690
.step x=691
.step x=692
.step x=693
.step x=694
.step x=695
.step x=696
.step x=697
.step x=698
.step x=699
.step x=700
.step x=701
.step x=702
.step x=703
.step x=704
.step x=705
.step x=706
.step x=707
.step x=708
.step x=709
.step x=710
.step x=711
.step x=712
.step x=713
.step x=714
.step x=715
.step x=716
.step x=717
.step x=718
.step x=719
.step x=720
.step x=721
.step x=722
.step x=723
.step x=724
.step x=725
.step x=726
.step x=727
.step x=728
.step x=729
.step x=730
.step x=731
.step x=732
.step x=733
.step x=734
.step x=735
.step x=736
.step x=737
.step x=738
.step x=739
.step x=740
.step x=741
.step x=742
.step x=743
.step x=744
.step x=745
.step x=746
.step x=747
.step x=748
.step x=749
.step x=750
.step x=751
.step x=752
.step x=753
.step x=754
.step x=755
.step x=756
.step x=757
.step x=758
.step x=759
.step x=760
.step x=761
.step x=762
.step x=763
.step x=764
.step x=765
.step x=766
.step x=767
.step x=768
.step x=769
.step x=770
.step x=771
.step x=772
.step x=773
.step x=774
.step x=775
.step x=776
.step x=777
.step x=778
.step x=779
.step x=780
.step x=781
.step x=782
.step x=783
.step x=784
.step x=785
.step x=786
.step x=787
.step x=788
.step x=789
.step x=790
.step x=791
.step x=792
.step x=793
.step x=794
.step x=795
.step x=796
.step x=797
.step x=798
.step x=799
.step x=800
.step x=801
.step x=802
.step x=803
.step x=804
.step x=805
.step x=806
.step x=807
.step x=808
.step x=809
.step x=810
.step x=811
.step x=812
.step x=813
.step x=814
.step x=815
.step x=816
.step x=817
.step x=818
.step x=819
.step x=820
.step x=821
.step x=822
.step x=823
.step x=824
.step x=825
.step x=826
.step x=827
.step x=828
.step x=829
.step x=830
.step x=831
.step x=832
.step x=833
.step x=834
.step x=835
.step x=836
.step x=837
.step x=838
.step x=839
.step x=840
.step x=841
.step x=842
.step x=843
.step x=844
.step x=845
.step x=846
.step x=847
.step x=848
.step x=849
.step x=850
.step x=851
.step x=852
.step x=853
.step x=854
.step x=855
.step x=856
.step x=857
.step x=858
.step x=859
.step x=860
.step x=861
.step x=862
.step x=863
.step x=864
.step x=865
.step x=866
.step x=867
.step x=868
.step x=869
.step x=870
.step x=871
.step x=872
.step x=873
.step x=874
.step x=875
.step x=876
.step x=877
.step x=878
.step x=879
.step x=880
.step x=881
.step x=882
.step x=883
.step x=884
.step x=885
.step x=886
.step x=887
.step x=888
.step x=889
.step x=890
.step x=891
.step x=892
.step x=893
.step x=894
.step x=895
