LTspice 24.0.9 for Windows
Circuit: * D:\Projektek\Masters-thesis\LTspice\Numpad_clean_for_presentation.asc
Start Time: Mon Nov  3 00:50:18 2025
solver = Normal
Maximum thread count: 12



WARNING: Node N005 is floating.
WARNING: Node N013 is floating.
WARNING: Node N002 is floating.
WARNING: Node N009 is floating.
WARNING: Node N016 is floating.
WARNING: Node N021 is floating.
WARNING: Node N024 is floating.
WARNING: Node N027 is floating.
WARNING: Node N030 is floating.
WARNING: Node N018 is floating.

WARNING: Less than two connections to node 3vmeasback.  This node is used by r13.
WARNING: Less than two connections to node numpadmeasback.  This node is used by r18.
Direct Newton iteration failed to find .op point.  (Use ".option noopiter" to skip.)
Starting Gmin stepping
Gmin = 10
Gmin = 1.07374
Gmin = 0.115292
Gmin = 0.0123794
Gmin = 0.00132923
Gmin = 0.000142725
Gmin = 1.5325e-05
Gmin = 1.6455e-06
Gmin = 1.76685e-07
Gmin = 1.89714e-08
vernier = 0.5
vernier = 0.25
vernier = 0.125
vernier = 0.0625
Gmin = 1.58715e-08
vernier = 0.03125
vernier = 0.0416667
Gmin = 1.47985e-08
vernier = 0.0555555
vernier = 0.0277778
Gmin = 1.38576e-08
vernier = 0.037037
vernier = 0.0493827
vernier = 0.0246913
Gmin = 1.29517e-08
vernier = 0.0329218
vernier = 0.0438957
Gmin = 1.19732e-08
vernier = 0.0219478
vernier = 0.0292638
Gmin = 1.14394e-08
vernier = 0.0390184
vernier = 0.0195092
vernier = 0.00975459
Gmin = 1.11374e-08
vernier = 0.0130061
vernier = 0.0173415
Gmin = 1.07352e-08
vernier = 0.023122
vernier = 0.0308293
vernier = 0.0154146
Gmin = 1.0281e-08
vernier = 0.0205529
Gmin = 9.82998e-09
vernier = 0.0274038
vernier = 0.0137019
vernier = 0.0182692
Gmin = 9.52672e-09
vernier = 0.0243589
Gmin = 9.02e-09
vernier = 0.0324786
vernier = 0.0162393
vernier = 0.00811964
vernier = 0.0108262
Gmin = 8.88087e-09
vernier = 0.0144349
Gmin = 8.59753e-09
vernier = 0.0192465
vernier = 0.025662
vernier = 0.012831
Gmin = 8.30011e-09
vernier = 0.017108
vernier = 0.0228107
Gmin = 7.96747e-09
vernier = 0.0304143
vernier = 0.0152071
Gmin = 7.65647e-09
vernier = 0.0202762
vernier = 0.0270349
vernier = 0.0135174
Gmin = 7.37153e-09
vernier = 0.00675872
vernier = 0.00901162
Gmin = 7.24406e-09
vernier = 0.0120155
vernier = 0.0160207
Gmin = 7.02651e-09
vernier = 0.0213609
vernier = 0.0106804
Gmin = 6.8417e-09
vernier = 0.0142406
vernier = 0.0189874
Gmin = 6.5853e-09
vernier = 0.0253166
vernier = 0.0337554
Gmin = 6.19891e-09
vernier = 0.0450072
Gmin = 5.62045e-09
vernier = 0.0600096
vernier = 0.0800128
Gmin = 4.78966e-09
vernier = 0.106684
vernier = 0.142245
Gmin = 3.72166e-09
vernier = 0.18966
Gmin = 2.47893e-09
vernier = 0.25288
vernier = 0.337173
Gmin = 1.28519e-09
vernier = 0.449564
vernier = 0.599418
Gmin = 4.62742e-10
vernier = 0.799224
Gmin = 9.25912e-11
vernier = 1
Gmin = 1.03578e-11
Gmin = 1.11216e-12
Gmin = 1.19418e-13
Gmin = 0
Gmin stepping succeeded in finding the operating point.

.step x=0
tnom = 27
temp = 27
method = modified trap
.step x=1
Total elapsed time: 2.028 seconds.

