LTspice 24.1.10 for Windows
Circuit: C:\Users\SNA1BP\Documents\Masters-thesis\LTspice\Numpad_clean_for_presentation.net
Start Time: Mon Nov  3 12:16:58 2025
solver = Normal
Maximum thread count: 12
tnom = 27
temp = 27
method = modified trap
WARNING: Node n005 is floating.
WARNING: Node n013 is floating.
WARNING: Node n002 is floating.
WARNING: Node n009 is floating.
WARNING: Node n016 is floating.
WARNING: Node n021 is floating.
WARNING: Node n024 is floating.
WARNING: Node n027 is floating.
WARNING: Node n030 is floating.
WARNING: Node n018 is floating.

Direct Newton iteration failed to find .op point.  (Use ".option noopiter" to skip.)
Starting Gmin stepping
Gmin = 10
Gmin = 1.07374
Gmin = 0.115292
Gmin = 0.0123794
Gmin = 0.00132923
Gmin = 0.000142725
Gmin = 1.5325e-05
Gmin = 1.6455e-06
Gmin = 1.76685e-07
Gmin = 1.89714e-08
vernier = 0.5
vernier = 0.25
vernier = 0.125
vernier = 0.0625
Gmin = 1.58569e-08
vernier = 0.03125
vernier = 0.0416667
Gmin = 1.47849e-08
vernier = 0.0555555
vernier = 0.0277778
Gmin = 1.38449e-08
vernier = 0.037037
vernier = 0.0493827
vernier = 0.0246913
vernier = 0.0123457
vernier = 0.00617283
Gmin = 1.31e-08
vernier = 0.00308642
vernier = 0.00411522
Gmin = 1.29961e-08
vernier = 0.00548696
vernier = 0.00731595
Gmin = 1.28162e-08
vernier = 0.00975459
Gmin = 1.25383e-08
vernier = 0.0130061
vernier = 0.0173415
Gmin = 1.20855e-08
vernier = 0.023122
vernier = 0.0308293
Gmin = 1.13977e-08
vernier = 0.0411057
vernier = 0.0205529
vernier = 0.0102764
Gmin = 1.09683e-08
vernier = 0.0137019
vernier = 0.0182692
Gmin = 1.05935e-08
vernier = 0.0243589
Gmin = 1.00301e-08
vernier = 0.0324786
vernier = 0.0162393
vernier = 0.0216524
Gmin = 9.67102e-09
vernier = 0.0288698
vernier = 0.0144349
Gmin = 9.3458e-09
vernier = 0.0192465
vernier = 0.025662
vernier = 0.012831
Gmin = 9.0225e-09
vernier = 0.017108
vernier = 0.0228107
Gmin = 8.66091e-09
vernier = 0.0304143
vernier = 0.0152071
vernier = 0.00760356
Gmin = 8.38622e-09
vernier = 0.0101381
vernier = 0.0135174
Gmin = 8.18522e-09
vernier = 0.0180232
Gmin = 7.86941e-09
vernier = 0.024031
vernier = 0.0120155
vernier = 0.0160207
Gmin = 7.65606e-09
vernier = 0.0213609
vernier = 0.0106804
Gmin = 7.45468e-09
vernier = 0.0142406
vernier = 0.0189874
Gmin = 7.17531e-09
vernier = 0.0253166
vernier = 0.0126583
vernier = 0.00632914
Gmin = 7.02949e-09
vernier = 0.00843885
vernier = 0.0112518
Gmin = 6.87204e-09
vernier = 0.0150024
vernier = 0.0200032
Gmin = 6.62987e-09
vernier = 0.0100016
vernier = 0.0133355
Gmin = 6.49332e-09
vernier = 0.0177806
vernier = 0.0237075
vernier = 0.0118537
Gmin = 6.28085e-09
vernier = 0.015805
Gmin = 6.06778e-09
vernier = 0.0210733
vernier = 0.0105366
vernier = 0.00526832
vernier = 0.00702443
Gmin = 5.99373e-09
vernier = 0.0093659
Gmin = 5.8723e-09
vernier = 0.0124879
vernier = 0.0166505
vernier = 0.00832524
Gmin = 5.73809e-09
vernier = 0.0111003
Gmin = 5.59673e-09
vernier = 0.0148004
vernier = 0.0197339
vernier = 0.00986695
vernier = 0.00493347
vernier = 0.00246674
Gmin = 5.47407e-09
vernier = 0.00123337
vernier = 0.000616684
vernier = 0.000822246
Gmin = 5.46648e-09
vernier = 0.00109633
vernier = 0.00146177
Gmin = 5.45214e-09
vernier = 0.00194903
Gmin = 5.42895e-09
vernier = 0.0025987
vernier = 0.00346493
Gmin = 5.39118e-09
vernier = 0.00461991
vernier = 0.00615988
Gmin = 5.33187e-09
vernier = 0.00821317
Gmin = 5.23702e-09
vernier = 0.0109509
vernier = 0.0146012
Gmin = 5.08536e-09
vernier = 0.0194682
vernier = 0.00973411
Gmin = 4.96932e-09
vernier = 0.0129788
vernier = 0.0173051
vernier = 0.00865254
vernier = 0.00432627
Gmin = 4.8684e-09
vernier = 0.00576836
Gmin = 4.80566e-09
vernier = 0.00769114
vernier = 0.0102549
Gmin = 4.70219e-09
vernier = 0.0136731
vernier = 0.00683657
vernier = 0.00911542
Gmin = 4.62785e-09
vernier = 0.0121539
Gmin = 4.50659e-09
vernier = 0.0162052
vernier = 0.00810259
vernier = 0.0040513
vernier = 0.00540173
Gmin = 4.46423e-09
vernier = 0.0072023
Gmin = 4.3945e-09
vernier = 0.00960307
vernier = 0.0128041
vernier = 0.00640204
Gmin = 4.31703e-09
vernier = 0.00853606
Gmin = 4.23499e-09
vernier = 0.0113814
vernier = 0.0151752
vernier = 0.0075876
vernier = 0.0037938
Gmin = 4.15946e-09
vernier = 0.0050584
Gmin = 4.11242e-09
vernier = 0.00674453
vernier = 0.00899271
Gmin = 4.03465e-09
vernier = 0.0119903
vernier = 0.00599514
vernier = 0.00799351
Gmin = 3.97865e-09
vernier = 0.010658
Gmin = 3.88708e-09
vernier = 0.0142107
vernier = 0.00710534
vernier = 0.00947379
Gmin = 3.82436e-09
vernier = 0.0126317
vernier = 0.00631586
vernier = 0.00315793
Gmin = 3.77938e-09
vernier = 0.00421057
vernier = 0.00561409
Gmin = 3.73917e-09
vernier = 0.00748545
Gmin = 3.67678e-09
vernier = 0.0099806
vernier = 0.0133075
vernier = 0.00665373
Gmin = 3.61019e-09
vernier = 0.00887164
vernier = 0.0118289
Gmin = 3.53435e-09
vernier = 0.00591443
vernier = 0.0078859
Gmin = 3.4911e-09
vernier = 0.0105145
vernier = 0.00525726
vernier = 0.00700968
Gmin = 3.44857e-09
vernier = 0.00934624
Gmin = 3.37885e-09
vernier = 0.0124617
vernier = 0.00623083
vernier = 0.00311541
vernier = 0.00415388
Gmin = 3.35439e-09
vernier = 0.00553851
Gmin = 3.31402e-09
vernier = 0.00738468
vernier = 0.00984624
vernier = 0.00492312
Gmin = 3.26899e-09
vernier = 0.00656416
Gmin = 3.2211e-09
vernier = 0.00875221
vernier = 0.0043761
vernier = 0.0058348
Gmin = 3.18956e-09
vernier = 0.00777973
vernier = 0.010373
Gmin = 3.13072e-09
vernier = 0.00518649
vernier = 0.00259324
vernier = 0.00345766
Gmin = 3.12058e-09
vernier = 0.00461021
vernier = 0.00614694
Gmin = 3.08633e-09
vernier = 0.00819592
Gmin = 3.03153e-09
vernier = 0.0109279
vernier = 0.00546395
vernier = 0.00728526
Gmin = 2.99384e-09
vernier = 0.00971368
vernier = 0.00485684
Gmin = 2.95774e-09
vernier = 0.00647579
vernier = 0.00863438
vernier = 0.00431719
Gmin = 2.92246e-09
vernier = 0.00575625
Gmin = 2.88488e-09
vernier = 0.007675
vernier = 0.0102333
Gmin = 2.82289e-09
vernier = 0.0136444
vernier = 0.0181926
Gmin = 2.72684e-09
vernier = 0.0242568
Gmin = 2.5824e-09
vernier = 0.0323423
vernier = 0.0431231
Gmin = 2.35728e-09
vernier = 0.0574975
vernier = 0.0766633
Gmin = 2.039e-09
vernier = 0.102218
Gmin = 1.62437e-09
vernier = 0.13629
vernier = 0.18172
Gmin = 1.11224e-09
vernier = 0.242294
vernier = 0.323058
Gmin = 6.12214e-10
vernier = 0.430744
Gmin = 2.42929e-10
vernier = 0.574325
vernier = 0.765767
Gmin = 5.38996e-11
vernier = 1
Gmin = 6.3703e-12
Gmin = 6.84006e-13
Gmin = 0
Gmin stepping succeeded in finding the operating point.

.step x=0
.step x=1
.step x=2
.step x=3
.step x=4
.step x=5
.step x=6
.step x=7
.step x=8
.step x=9
.step x=10
.step x=11
.step x=12
.step x=13
.step x=14
.step x=15
.step x=16
.step x=17
.step x=18
.step x=19
.step x=20
.step x=21
.step x=22
.step x=23
.step x=24
.step x=25
.step x=26
.step x=27
.step x=28
.step x=29
.step x=30
.step x=31
.step x=32
.step x=33
.step x=34
.step x=35
.step x=36
.step x=37
.step x=38
.step x=39
.step x=40
.step x=41
.step x=42
.step x=43
.step x=44
.step x=45
.step x=46
.step x=47
.step x=48
.step x=49
.step x=50
.step x=51
.step x=52
.step x=53
.step x=54
.step x=55
.step x=56
.step x=57
.step x=58
.step x=59
.step x=60
.step x=61
.step x=62
.step x=63
.step x=64
.step x=65
.step x=66
.step x=67
.step x=68
.step x=69
.step x=70
.step x=71
.step x=72
.step x=73
.step x=74
.step x=75
.step x=76
.step x=77
.step x=78
.step x=79
.step x=80
.step x=81
.step x=82
.step x=83
.step x=84
.step x=85
.step x=86
.step x=87
.step x=88
.step x=89
.step x=90
.step x=91
.step x=92
.step x=93
.step x=94
.step x=95
.step x=96
.step x=97
.step x=98
.step x=99
.step x=100
.step x=101
.step x=102
.step x=103
.step x=104
.step x=105
.step x=106
.step x=107
.step x=108
.step x=109
.step x=110
.step x=111
.step x=112
.step x=113
.step x=114
.step x=115
.step x=116
.step x=117
.step x=118
.step x=119
.step x=120
.step x=121
.step x=122
.step x=123
.step x=124
.step x=125
.step x=126
.step x=127
.step x=128
.step x=129
.step x=130
.step x=131
.step x=132
.step x=133
.step x=134
.step x=135
.step x=136
.step x=137
.step x=138
.step x=139
.step x=140
.step x=141
.step x=142
.step x=143
.step x=144
.step x=145
.step x=146
.step x=147
.step x=148
.step x=149
.step x=150
.step x=151
.step x=152
.step x=153
.step x=154
.step x=155
.step x=156
.step x=157
.step x=158
.step x=159
.step x=160
.step x=161
.step x=162
.step x=163
.step x=164
.step x=165
.step x=166
.step x=167
.step x=168
.step x=169
.step x=170
.step x=171
.step x=172
.step x=173
.step x=174
.step x=175
.step x=176
.step x=177
.step x=178
.step x=179
.step x=180
.step x=181
.step x=182
.step x=183
.step x=184
.step x=185
.step x=186
.step x=187
.step x=188
.step x=189
.step x=190
.step x=191
.step x=192
.step x=193
.step x=194
.step x=195
.step x=196
.step x=197
.step x=198
.step x=199
.step x=200
.step x=201
.step x=202
.step x=203
.step x=204
.step x=205
.step x=206
.step x=207
.step x=208
.step x=209
.step x=210
.step x=211
.step x=212
.step x=213
.step x=214
.step x=215
.step x=216
.step x=217
.step x=218
.step x=219
.step x=220
.step x=221
.step x=222
.step x=223
.step x=224
.step x=225
.step x=226
.step x=227
.step x=228
.step x=229
.step x=230
.step x=231
.step x=232
.step x=233
.step x=234
.step x=235
.step x=236
.step x=237
.step x=238
.step x=239
.step x=240
.step x=241
.step x=242
.step x=243
.step x=244
.step x=245
.step x=246
.step x=247
.step x=248
.step x=249
.step x=250
.step x=251
.step x=252
.step x=253
.step x=254
.step x=255
.step x=256
.step x=257
.step x=258
.step x=259
.step x=260
.step x=261
.step x=262
.step x=263
.step x=264
.step x=265
.step x=266
.step x=267
.step x=268
.step x=269
.step x=270
.step x=271
.step x=272
.step x=273
.step x=274
.step x=275
.step x=276
.step x=277
.step x=278
.step x=279
.step x=280
.step x=281
.step x=282
.step x=283
.step x=284
.step x=285
.step x=286
.step x=287
.step x=288
.step x=289
.step x=290
.step x=291
.step x=292
.step x=293
.step x=294
.step x=295
.step x=296
.step x=297
.step x=298
.step x=299
.step x=300
.step x=301
.step x=302
.step x=303
.step x=304
.step x=305
.step x=306
.step x=307
.step x=308
.step x=309
.step x=310
.step x=311
.step x=312
.step x=313
.step x=314
.step x=315
.step x=316
.step x=317
.step x=318
.step x=319
.step x=320
.step x=321
.step x=322
.step x=323
.step x=324
.step x=325
.step x=326
.step x=327
.step x=328
.step x=329
.step x=330
.step x=331
.step x=332
.step x=333
.step x=334
.step x=335
.step x=336
.step x=337
.step x=338
.step x=339
.step x=340
.step x=341
.step x=342
.step x=343
.step x=344
.step x=345
.step x=346
.step x=347
.step x=348
.step x=349
.step x=350
.step x=351
.step x=352
.step x=353
.step x=354
.step x=355
.step x=356
.step x=357
.step x=358
.step x=359
.step x=360
.step x=361
.step x=362
.step x=363
.step x=364
.step x=365
.step x=366
.step x=367
.step x=368
.step x=369
.step x=370
.step x=371
.step x=372
.step x=373
.step x=374
.step x=375
.step x=376
.step x=377
.step x=378
.step x=379
.step x=380
.step x=381
.step x=382
.step x=383
.step x=384
.step x=385
.step x=386
.step x=387
.step x=388
.step x=389
.step x=390
.step x=391
.step x=392
.step x=393
.step x=394
.step x=395
.step x=396
.step x=397
.step x=398
.step x=399
.step x=400
.step x=401
.step x=402
.step x=403
.step x=404
.step x=405
.step x=406
.step x=407
.step x=408
.step x=409
.step x=410
.step x=411
.step x=412
.step x=413
.step x=414
.step x=415
.step x=416
.step x=417
.step x=418
.step x=419
.step x=420
.step x=421
.step x=422
.step x=423
.step x=424
.step x=425
.step x=426
.step x=427
.step x=428
.step x=429
.step x=430
.step x=431
.step x=432
.step x=433
.step x=434
.step x=435
.step x=436
.step x=437
.step x=438
.step x=439
.step x=440
.step x=441
.step x=442
.step x=443
.step x=444
.step x=445
.step x=446
.step x=447
.step x=448
.step x=449
.step x=450
.step x=451
.step x=452
.step x=453
.step x=454
.step x=455
.step x=456
.step x=457
.step x=458
.step x=459
.step x=460
.step x=461
.step x=462
.step x=463
.step x=464
.step x=465
.step x=466
.step x=467
.step x=468
.step x=469
.step x=470
.step x=471
.step x=472
.step x=473
.step x=474
.step x=475
.step x=476
.step x=477
.step x=478
.step x=479
.step x=480
.step x=481
.step x=482
.step x=483
.step x=484
.step x=485
.step x=486
.step x=487
.step x=488
.step x=489
.step x=490
.step x=491
.step x=492
.step x=493
.step x=494
.step x=495
.step x=496
.step x=497
.step x=498
.step x=499
.step x=500
Total elapsed time: 302.142 seconds.

Files loaded:
C:\Users\SNA1BP\Documents\Masters-thesis\LTspice\Numpad_clean_for_presentation.net
C:\Users\SNA1BP\AppData\Local\LTspice\lib\sub\opamp.sub
C:\Users\SNA1BP\AppData\Local\LTspice\lib\sub\LTC.lib
C:\Users\SNA1BP\Documents\Masters-thesis\LTspice\TL431\TL431.mod

