LTspice 24.1.10 for Windows
Circuit: C:\Users\SNA1BP\Documents\Masters-thesis\LTspice\Numpad_clean_for_presentation.net
Start Time: Thu Nov 27 20:14:38 2025
solver = Normal
Maximum thread count: 12
tnom = 27
temp = 27
method = modified trap
WARNING: Node n005 is floating.
WARNING: Node n013 is floating.
WARNING: Node n002 is floating.
WARNING: Node n009 is floating.
WARNING: Node n016 is floating.
WARNING: Node n021 is floating.
WARNING: Node n024 is floating.
WARNING: Node n027 is floating.
WARNING: Node n030 is floating.
WARNING: Node n018 is floating.

Direct Newton iteration failed to find .op point.  (Use ".option noopiter" to skip.)
Starting Gmin stepping
Gmin = 10
Gmin = 1.07374
Gmin = 0.115292
Gmin = 0.0123794
Gmin = 0.00132923
Gmin = 0.000142725
Gmin = 1.5325e-05
Gmin = 1.6455e-06
Gmin = 1.76685e-07
Gmin = 1.89714e-08
vernier = 0.5
vernier = 0.25
vernier = 0.125
vernier = 0.0625
Gmin = 1.58715e-08
vernier = 0.03125
vernier = 0.0416667
Gmin = 1.47985e-08
vernier = 0.0555555
vernier = 0.0277778
Gmin = 1.38576e-08
vernier = 0.037037
vernier = 0.0493827
vernier = 0.0246913
Gmin = 1.29517e-08
vernier = 0.0329218
vernier = 0.0438957
Gmin = 1.19732e-08
vernier = 0.0219478
vernier = 0.0109739
vernier = 0.00548696
vernier = 0.00731595
Gmin = 1.1978e-08
vernier = 0.00975459
Gmin = 1.17183e-08
vernier = 0.0130061
vernier = 0.0173415
Gmin = 1.12951e-08
vernier = 0.023122
vernier = 0.0308293
Gmin = 1.06523e-08
vernier = 0.0411057
vernier = 0.0205529
Gmin = 1.01206e-08
vernier = 0.0274038
vernier = 0.0365384
vernier = 0.0182692
Gmin = 9.62074e-09
vernier = 0.0243589
Gmin = 9.10903e-09
vernier = 0.0324786
vernier = 0.0162393
vernier = 0.0216524
Gmin = 8.78295e-09
vernier = 0.0288698
vernier = 0.0144349
Gmin = 8.4876e-09
vernier = 0.0192465
vernier = 0.025662
vernier = 0.012831
Gmin = 8.19398e-09
vernier = 0.017108
vernier = 0.0228107
Gmin = 7.8656e-09
vernier = 0.0114053
vernier = 0.0152071
Gmin = 7.68116e-09
vernier = 0.0202762
vernier = 0.0270349
vernier = 0.0135174
Gmin = 7.39529e-09
vernier = 0.0180232
Gmin = 7.10996e-09
vernier = 0.024031
vernier = 0.0120155
vernier = 0.00600775
vernier = 0.00801033
Gmin = 7.01111e-09
vernier = 0.0106804
Gmin = 6.8494e-09
vernier = 0.0142406
vernier = 0.0189874
Gmin = 6.59271e-09
vernier = 0.0253166
vernier = 0.0126583
Gmin = 6.39784e-09
vernier = 0.0168777
vernier = 0.0225036
vernier = 0.0112518
vernier = 0.0056259
Gmin = 6.22947e-09
vernier = 0.0075012
Gmin = 6.1253e-09
vernier = 0.0100016
vernier = 0.0133355
Gmin = 5.9544e-09
vernier = 0.0177806
vernier = 0.0088903
vernier = 0.0118537
Gmin = 5.83232e-09
vernier = 0.015805
Gmin = 5.63446e-09
vernier = 0.0210733
vernier = 0.0105366
vernier = 0.0140489
Gmin = 5.50025e-09
vernier = 0.0187318
vernier = 0.0093659
vernier = 0.00468295
vernier = 0.00234148
vernier = 0.00117074
vernier = 0.000585369
Gmin = 5.42365e-09
vernier = 0.000439027
Gmin = 0
Gmin stepping failed

Starting source stepping with srcstepmethod=0
Source Step = 3.0303%
Source Step = 33.3333%
Source Step = 63.6364%
Source Step = 93.9394%
Source stepping succeeded in finding the operating point.

.step x=0
.step x=1
.step x=2
.step x=3
.step x=4
.step x=5
.step x=6
.step x=7
.step x=8
.step x=9
.step x=10
.step x=11
.step x=12
.step x=13
.step x=14
.step x=15
.step x=16
.step x=17
.step x=18
.step x=19
.step x=20
.step x=21
.step x=22
.step x=23
.step x=24
.step x=25
.step x=26
.step x=27
.step x=28
.step x=29
.step x=30
.step x=31
.step x=32
.step x=33
.step x=34
.step x=35
.step x=36
.step x=37
.step x=38
.step x=39
.step x=40
.step x=41
.step x=42
.step x=43
.step x=44
.step x=45
.step x=46
.step x=47
.step x=48
.step x=49
.step x=50
.step x=51
.step x=52
.step x=53
.step x=54
.step x=55
.step x=56
.step x=57
.step x=58
.step x=59
.step x=60
.step x=61
.step x=62
.step x=63
.step x=64
.step x=65
.step x=66
.step x=67
.step x=68
.step x=69
.step x=70
.step x=71
.step x=72
.step x=73
.step x=74
.step x=75
.step x=76
.step x=77
.step x=78
.step x=79
.step x=80
.step x=81
.step x=82
.step x=83
.step x=84
.step x=85
.step x=86
.step x=87
.step x=88
.step x=89
.step x=90
.step x=91
.step x=92
.step x=93
.step x=94
.step x=95
.step x=96
.step x=97
.step x=98
.step x=99
.step x=100
.step x=101
.step x=102
.step x=103
.step x=104
.step x=105
.step x=106
.step x=107
.step x=108
.step x=109
.step x=110
.step x=111
.step x=112
.step x=113
.step x=114
.step x=115
.step x=116
.step x=117
.step x=118
.step x=119
.step x=120
.step x=121
.step x=122
.step x=123
.step x=124
.step x=125
.step x=126
.step x=127
.step x=128
.step x=129
.step x=130
.step x=131
.step x=132
.step x=133
.step x=134
.step x=135
.step x=136
.step x=137
.step x=138
.step x=139
.step x=140
.step x=141
.step x=142
.step x=143
.step x=144
.step x=145
.step x=146
.step x=147
.step x=148
.step x=149
.step x=150
.step x=151
.step x=152
.step x=153
.step x=154
.step x=155
.step x=156
.step x=157
.step x=158
.step x=159
.step x=160
.step x=161
.step x=162
.step x=163
.step x=164
.step x=165
.step x=166
.step x=167
.step x=168
.step x=169
.step x=170
.step x=171
.step x=172
.step x=173
.step x=174
.step x=175
.step x=176
.step x=177
.step x=178
.step x=179
.step x=180
.step x=181
.step x=182
.step x=183
.step x=184
.step x=185
.step x=186
.step x=187
.step x=188
.step x=189
.step x=190
.step x=191
.step x=192
.step x=193
.step x=194
.step x=195
.step x=196
.step x=197
.step x=198
.step x=199
.step x=200
.step x=201
.step x=202
.step x=203
.step x=204
.step x=205
.step x=206
.step x=207
.step x=208
.step x=209
.step x=210
.step x=211
.step x=212
.step x=213
.step x=214
.step x=215
.step x=216
.step x=217
.step x=218
.step x=219
.step x=220
.step x=221
.step x=222
.step x=223
.step x=224
.step x=225
.step x=226
.step x=227
.step x=228
.step x=229
.step x=230
.step x=231
.step x=232
.step x=233
.step x=234
.step x=235
.step x=236
.step x=237
.step x=238
.step x=239
.step x=240
.step x=241
.step x=242
.step x=243
.step x=244
.step x=245
.step x=246
.step x=247
.step x=248
.step x=249
.step x=250
.step x=251
.step x=252
.step x=253
.step x=254
.step x=255
.step x=256
.step x=257
.step x=258
.step x=259
.step x=260
.step x=261
.step x=262
.step x=263
.step x=264
.step x=265
.step x=266
.step x=267
.step x=268
.step x=269
.step x=270
.step x=271
.step x=272
.step x=273
.step x=274
.step x=275
.step x=276
.step x=277
.step x=278
.step x=279
.step x=280
.step x=281
.step x=282
.step x=283
.step x=284
.step x=285
.step x=286
.step x=287
.step x=288
.step x=289
.step x=290
.step x=291
.step x=292
.step x=293
.step x=294
.step x=295
.step x=296
.step x=297
.step x=298
.step x=299
.step x=300
.step x=301
.step x=302
.step x=303
.step x=304
.step x=305
.step x=306
.step x=307
.step x=308
.step x=309
.step x=310
.step x=311
.step x=312
.step x=313
.step x=314
.step x=315
.step x=316
.step x=317
.step x=318
.step x=319
.step x=320
.step x=321
.step x=322
.step x=323
.step x=324
.step x=325
.step x=326
.step x=327
.step x=328
.step x=329
.step x=330
.step x=331
.step x=332
.step x=333
.step x=334
.step x=335
.step x=336
.step x=337
.step x=338
.step x=339
.step x=340
.step x=341
.step x=342
.step x=343
.step x=344
.step x=345
.step x=346
.step x=347
.step x=348
.step x=349
.step x=350
.step x=351
.step x=352
.step x=353
.step x=354
.step x=355
.step x=356
.step x=357
.step x=358
.step x=359
.step x=360
.step x=361
.step x=362
.step x=363
.step x=364
.step x=365
.step x=366
.step x=367
.step x=368
.step x=369
.step x=370
.step x=371
.step x=372
.step x=373
.step x=374
.step x=375
.step x=376
.step x=377
.step x=378
.step x=379
.step x=380
.step x=381
.step x=382
.step x=383
.step x=384
.step x=385
.step x=386
.step x=387
.step x=388
.step x=389
.step x=390
.step x=391
.step x=392
.step x=393
.step x=394
.step x=395
.step x=396
.step x=397
.step x=398
.step x=399
.step x=400
.step x=401
.step x=402
.step x=403
.step x=404
.step x=405
.step x=406
.step x=407
.step x=408
.step x=409
.step x=410
.step x=411
.step x=412
.step x=413
.step x=414
.step x=415
.step x=416
.step x=417
.step x=418
.step x=419
.step x=420
.step x=421
.step x=422
.step x=423
.step x=424
.step x=425
.step x=426
.step x=427
.step x=428
.step x=429
.step x=430
.step x=431
.step x=432
.step x=433
.step x=434
.step x=435
.step x=436
.step x=437
.step x=438
.step x=439
.step x=440
.step x=441
.step x=442
.step x=443
.step x=444
.step x=445
.step x=446
.step x=447
.step x=448
.step x=449
.step x=450
.step x=451
.step x=452
.step x=453
.step x=454
.step x=455
.step x=456
.step x=457
.step x=458
.step x=459
.step x=460
.step x=461
.step x=462
.step x=463
.step x=464
.step x=465
.step x=466
.step x=467
.step x=468
.step x=469
.step x=470
.step x=471
.step x=472
.step x=473
.step x=474
.step x=475
.step x=476
.step x=477
.step x=478
.step x=479
.step x=480
.step x=481
.step x=482
.step x=483
.step x=484
.step x=485
.step x=486
.step x=487
.step x=488
.step x=489
.step x=490
.step x=491
.step x=492
.step x=493
.step x=494
.step x=495
.step x=496
.step x=497
.step x=498
.step x=499
.step x=500
.step x=501
.step x=502
.step x=503
.step x=504
.step x=505
.step x=506
.step x=507
.step x=508
.step x=509
.step x=510
.step x=511
.step x=512
.step x=513
.step x=514
.step x=515
.step x=516
.step x=517
.step x=518
.step x=519
.step x=520
.step x=521
.step x=522
.step x=523
.step x=524
.step x=525
.step x=526
.step x=527
.step x=528
.step x=529
.step x=530
.step x=531
.step x=532
.step x=533
.step x=534
.step x=535
.step x=536
.step x=537
.step x=538
.step x=539
.step x=540
.step x=541
.step x=542
.step x=543
.step x=544
.step x=545
.step x=546
.step x=547
.step x=548
.step x=549
.step x=550
.step x=551
.step x=552
.step x=553
.step x=554
.step x=555
.step x=556
.step x=557
.step x=558
.step x=559
.step x=560
.step x=561
.step x=562
.step x=563
.step x=564
.step x=565
.step x=566
.step x=567
.step x=568
.step x=569
.step x=570
.step x=571
.step x=572
.step x=573
.step x=574
.step x=575
.step x=576
.step x=577
.step x=578
.step x=579
.step x=580
.step x=581
.step x=582
.step x=583
.step x=584
.step x=585
.step x=586
.step x=587
.step x=588
.step x=589
.step x=590
.step x=591
.step x=592
.step x=593
.step x=594
.step x=595
.step x=596
.step x=597
.step x=598
.step x=599
.step x=600
.step x=601
.step x=602
.step x=603
.step x=604
.step x=605
.step x=606
.step x=607
.step x=608
.step x=609
.step x=610
.step x=611
.step x=612
.step x=613
.step x=614
.step x=615
.step x=616
.step x=617
.step x=618
.step x=619
.step x=620
.step x=621
.step x=622
.step x=623
.step x=624
.step x=625
.step x=626
.step x=627
.step x=628
.step x=629
.step x=630
.step x=631
.step x=632
.step x=633
.step x=634
.step x=635
.step x=636
.step x=637
.step x=638
.step x=639
.step x=640
.step x=641
.step x=642
.step x=643
.step x=644
.step x=645
.step x=646
.step x=647
.step x=648
.step x=649
.step x=650
.step x=651
.step x=652
.step x=653
.step x=654
.step x=655
.step x=656
.step x=657
.step x=658
.step x=659
.step x=660
.step x=661
.step x=662
.step x=663
.step x=664
.step x=665
.step x=666
.step x=667
.step x=668
.step x=669
.step x=670
.step x=671
.step x=672
.step x=673
.step x=674
.step x=675
.step x=676
.step x=677
.step x=678
.step x=679
.step x=680
.step x=681
.step x=682
.step x=683
.step x=684
.step x=685
.step x=686
.step x=687
.step x=688
.step x=689
.step x=690
.step x=691
.step x=692
.step x=693
.step x=694
.step x=695
.step x=696
.step x=697
.step x=698
.step x=699
.step x=700
.step x=701
.step x=702
.step x=703
.step x=704
.step x=705
.step x=706
.step x=707
.step x=708
.step x=709
.step x=710
.step x=711
.step x=712
.step x=713
.step x=714
.step x=715
.step x=716
.step x=717
.step x=718
.step x=719
.step x=720
.step x=721
.step x=722
.step x=723
.step x=724
.step x=725
.step x=726
.step x=727
.step x=728
.step x=729
.step x=730
.step x=731
.step x=732
.step x=733
.step x=734
.step x=735
.step x=736
.step x=737
.step x=738
.step x=739
.step x=740
.step x=741
.step x=742
.step x=743
.step x=744
.step x=745
.step x=746
.step x=747
.step x=748
.step x=749
.step x=750
.step x=751
.step x=752
.step x=753
.step x=754
.step x=755
.step x=756
.step x=757
.step x=758
.step x=759
.step x=760
.step x=761
.step x=762
.step x=763
.step x=764
.step x=765
.step x=766
.step x=767
.step x=768
.step x=769
.step x=770
.step x=771
.step x=772
.step x=773
.step x=774
.step x=775
.step x=776
.step x=777
.step x=778
.step x=779
.step x=780
.step x=781
.step x=782
.step x=783
.step x=784
.step x=785
.step x=786
.step x=787
.step x=788
.step x=789
.step x=790
.step x=791
.step x=792
.step x=793
.step x=794
.step x=795
.step x=796
.step x=797
.step x=798
.step x=799
.step x=800
.step x=801
.step x=802
.step x=803
.step x=804
.step x=805
.step x=806
.step x=807
.step x=808
.step x=809
.step x=810
.step x=811
.step x=812
.step x=813
.step x=814
.step x=815
.step x=816
.step x=817
.step x=818
.step x=819
.step x=820
.step x=821
.step x=822
.step x=823
.step x=824
.step x=825
.step x=826
.step x=827
.step x=828
.step x=829
.step x=830
.step x=831
.step x=832
.step x=833
.step x=834
.step x=835
.step x=836
.step x=837
.step x=838
.step x=839
.step x=840
.step x=841
.step x=842
.step x=843
.step x=844
.step x=845
.step x=846
.step x=847
.step x=848
.step x=849
.step x=850
.step x=851
.step x=852
.step x=853
.step x=854
.step x=855
.step x=856
.step x=857
.step x=858
.step x=859
.step x=860
.step x=861
.step x=862
.step x=863
.step x=864
.step x=865
.step x=866
.step x=867
.step x=868
.step x=869
.step x=870
.step x=871
.step x=872
.step x=873
.step x=874
.step x=875
.step x=876
.step x=877
.step x=878
.step x=879
.step x=880
.step x=881
.step x=882
.step x=883
.step x=884
.step x=885
.step x=886
.step x=887
.step x=888
.step x=889
.step x=890
.step x=891
.step x=892
.step x=893
.step x=894
.step x=895
.step x=896
.step x=897
.step x=898
.step x=899
.step x=900
.step x=901
.step x=902
.step x=903
.step x=904
.step x=905
.step x=906
.step x=907
.step x=908
.step x=909
.step x=910
.step x=911
.step x=912
.step x=913
.step x=914
.step x=915
.step x=916
.step x=917
.step x=918
.step x=919
.step x=920
.step x=921
.step x=922
.step x=923
.step x=924
.step x=925
.step x=926
.step x=927
.step x=928
.step x=929
.step x=930
.step x=931
.step x=932
.step x=933
.step x=934
.step x=935
.step x=936
.step x=937
.step x=938
.step x=939
.step x=940
.step x=941
.step x=942
.step x=943
.step x=944
.step x=945
.step x=946
.step x=947
.step x=948
.step x=949
.step x=950
.step x=951
.step x=952
.step x=953
.step x=954
.step x=955
.step x=956
.step x=957
.step x=958
.step x=959
.step x=960
.step x=961
.step x=962
.step x=963
.step x=964
.step x=965
.step x=966
.step x=967
.step x=968
.step x=969
.step x=970
.step x=971
.step x=972
.step x=973
.step x=974
.step x=975
.step x=976
.step x=977
.step x=978
.step x=979
.step x=980
.step x=981
.step x=982
.step x=983
.step x=984
.step x=985
.step x=986
.step x=987
.step x=988
.step x=989
.step x=990
.step x=991
.step x=992
.step x=993
.step x=994
.step x=995
.step x=996
.step x=997
.step x=998
.step x=999
.step x=1000
.step x=1001
.step x=1002
.step x=1003
.step x=1004
.step x=1005
.step x=1006
.step x=1007
.step x=1008
.step x=1009
.step x=1010
.step x=1011
.step x=1012
.step x=1013
.step x=1014
.step x=1015
.step x=1016
.step x=1017
.step x=1018
.step x=1019
.step x=1020
.step x=1021
.step x=1022
.step x=1023
.step x=1024
.step x=1025
.step x=1026
.step x=1027
.step x=1028
.step x=1029
.step x=1030
.step x=1031
.step x=1032
.step x=1033
.step x=1034
.step x=1035
.step x=1036
.step x=1037
.step x=1038
.step x=1039
.step x=1040
.step x=1041
.step x=1042
.step x=1043
.step x=1044
.step x=1045
.step x=1046
.step x=1047
.step x=1048
.step x=1049
.step x=1050
.step x=1051
.step x=1052
.step x=1053
.step x=1054
.step x=1055
.step x=1056
.step x=1057
.step x=1058
.step x=1059
.step x=1060
.step x=1061
.step x=1062
.step x=1063
.step x=1064
.step x=1065
.step x=1066
.step x=1067
.step x=1068
.step x=1069
.step x=1070
.step x=1071
.step x=1072
.step x=1073
.step x=1074
.step x=1075
.step x=1076
.step x=1077
.step x=1078
.step x=1079
.step x=1080
.step x=1081
.step x=1082
.step x=1083
.step x=1084
.step x=1085
.step x=1086
.step x=1087
.step x=1088
.step x=1089
.step x=1090
.step x=1091
.step x=1092
.step x=1093
.step x=1094
.step x=1095
.step x=1096
.step x=1097
.step x=1098
.step x=1099
.step x=1100
.step x=1101
.step x=1102
.step x=1103
.step x=1104
.step x=1105
.step x=1106
.step x=1107
.step x=1108
.step x=1109
.step x=1110
.step x=1111
.step x=1112
.step x=1113
.step x=1114
.step x=1115
.step x=1116
.step x=1117
.step x=1118
.step x=1119
.step x=1120
.step x=1121
.step x=1122
.step x=1123
.step x=1124
.step x=1125
.step x=1126
.step x=1127
.step x=1128
.step x=1129
.step x=1130
.step x=1131
.step x=1132
.step x=1133
.step x=1134
.step x=1135
.step x=1136
.step x=1137
.step x=1138
.step x=1139
.step x=1140
.step x=1141
.step x=1142
.step x=1143
.step x=1144
.step x=1145
.step x=1146
.step x=1147
.step x=1148
.step x=1149
.step x=1150
.step x=1151
.step x=1152
.step x=1153
.step x=1154
.step x=1155
.step x=1156
.step x=1157
.step x=1158
.step x=1159
.step x=1160
.step x=1161
.step x=1162
.step x=1163
.step x=1164
.step x=1165
.step x=1166
.step x=1167
.step x=1168
.step x=1169
.step x=1170
.step x=1171
.step x=1172
.step x=1173
.step x=1174
.step x=1175
.step x=1176
.step x=1177
.step x=1178
.step x=1179
.step x=1180
.step x=1181
.step x=1182
.step x=1183
.step x=1184
.step x=1185
.step x=1186
.step x=1187
.step x=1188
.step x=1189
.step x=1190
.step x=1191
.step x=1192
.step x=1193
.step x=1194
.step x=1195
.step x=1196
.step x=1197
.step x=1198
.step x=1199
.step x=1200
.step x=1201
.step x=1202
.step x=1203
.step x=1204
.step x=1205
.step x=1206
.step x=1207
.step x=1208
.step x=1209
.step x=1210
.step x=1211
.step x=1212
.step x=1213
.step x=1214
.step x=1215
.step x=1216
.step x=1217
.step x=1218
.step x=1219
.step x=1220
.step x=1221
.step x=1222
.step x=1223
.step x=1224
.step x=1225
.step x=1226
.step x=1227
.step x=1228
.step x=1229
.step x=1230
.step x=1231
.step x=1232
.step x=1233
.step x=1234
.step x=1235
.step x=1236
.step x=1237
.step x=1238
.step x=1239
.step x=1240
.step x=1241
.step x=1242
.step x=1243
.step x=1244
.step x=1245
.step x=1246
.step x=1247
.step x=1248
.step x=1249
.step x=1250
.step x=1251
.step x=1252
.step x=1253
.step x=1254
.step x=1255
.step x=1256
.step x=1257
.step x=1258
.step x=1259
.step x=1260
.step x=1261
.step x=1262
.step x=1263
.step x=1264
.step x=1265
.step x=1266
.step x=1267
.step x=1268
.step x=1269
.step x=1270
.step x=1271
.step x=1272
.step x=1273
.step x=1274
.step x=1275
.step x=1276
.step x=1277
.step x=1278
.step x=1279
.step x=1280
.step x=1281
.step x=1282
.step x=1283
.step x=1284
.step x=1285
.step x=1286
.step x=1287
.step x=1288
.step x=1289
.step x=1290
.step x=1291
.step x=1292
.step x=1293
.step x=1294
.step x=1295
.step x=1296
.step x=1297
.step x=1298
.step x=1299
.step x=1300
.step x=1301
.step x=1302
.step x=1303
.step x=1304
.step x=1305
.step x=1306
.step x=1307
.step x=1308
.step x=1309
.step x=1310
.step x=1311
.step x=1312
.step x=1313
.step x=1314
.step x=1315
.step x=1316
.step x=1317
.step x=1318
.step x=1319
.step x=1320
.step x=1321
.step x=1322
.step x=1323
.step x=1324
.step x=1325
.step x=1326
.step x=1327
.step x=1328
.step x=1329
.step x=1330
.step x=1331
.step x=1332
.step x=1333
.step x=1334
.step x=1335
.step x=1336
.step x=1337
.step x=1338
.step x=1339
.step x=1340
.step x=1341
.step x=1342
.step x=1343
.step x=1344
.step x=1345
.step x=1346
.step x=1347
.step x=1348
.step x=1349
.step x=1350
.step x=1351
.step x=1352
.step x=1353
.step x=1354
.step x=1355
.step x=1356
.step x=1357
.step x=1358
.step x=1359
.step x=1360
.step x=1361
.step x=1362
.step x=1363
.step x=1364
.step x=1365
.step x=1366
.step x=1367
.step x=1368
.step x=1369
.step x=1370
.step x=1371
.step x=1372
.step x=1373
.step x=1374
.step x=1375
.step x=1376
.step x=1377
.step x=1378
.step x=1379
.step x=1380
.step x=1381
.step x=1382
.step x=1383
.step x=1384
.step x=1385
.step x=1386
.step x=1387
.step x=1388
.step x=1389
.step x=1390
.step x=1391
.step x=1392
.step x=1393
.step x=1394
.step x=1395
.step x=1396
.step x=1397
.step x=1398
.step x=1399
.step x=1400
.step x=1401
.step x=1402
.step x=1403
.step x=1404
.step x=1405
.step x=1406
.step x=1407
.step x=1408
.step x=1409
.step x=1410
.step x=1411
.step x=1412
.step x=1413
.step x=1414
.step x=1415
.step x=1416
.step x=1417
.step x=1418
.step x=1419
.step x=1420
.step x=1421
.step x=1422
.step x=1423
.step x=1424
.step x=1425
.step x=1426
.step x=1427
.step x=1428
.step x=1429
.step x=1430
.step x=1431
.step x=1432
.step x=1433
.step x=1434
.step x=1435
.step x=1436
.step x=1437
.step x=1438
.step x=1439
.step x=1440
.step x=1441
.step x=1442
.step x=1443
.step x=1444
.step x=1445
.step x=1446
.step x=1447
.step x=1448
.step x=1449
.step x=1450
.step x=1451
.step x=1452
.step x=1453
.step x=1454
.step x=1455
.step x=1456
.step x=1457
.step x=1458
.step x=1459
.step x=1460
.step x=1461
.step x=1462
.step x=1463
.step x=1464
.step x=1465
.step x=1466
.step x=1467
.step x=1468
.step x=1469
.step x=1470
.step x=1471
.step x=1472
.step x=1473
.step x=1474
.step x=1475
.step x=1476
.step x=1477
.step x=1478
.step x=1479
.step x=1480
.step x=1481
.step x=1482
.step x=1483
.step x=1484
.step x=1485
.step x=1486
.step x=1487
.step x=1488
.step x=1489
.step x=1490
.step x=1491
.step x=1492
.step x=1493
.step x=1494
.step x=1495
.step x=1496
.step x=1497
.step x=1498
.step x=1499
.step x=1500
.step x=1501
.step x=1502
.step x=1503
.step x=1504
.step x=1505
.step x=1506
.step x=1507
.step x=1508
.step x=1509
.step x=1510
.step x=1511
.step x=1512
.step x=1513
.step x=1514
.step x=1515
.step x=1516
.step x=1517
.step x=1518
.step x=1519
.step x=1520
.step x=1521
.step x=1522
.step x=1523
.step x=1524
.step x=1525
.step x=1526
.step x=1527
.step x=1528
.step x=1529
.step x=1530
.step x=1531
.step x=1532
.step x=1533
.step x=1534
.step x=1535
.step x=1536
.step x=1537
.step x=1538
.step x=1539
.step x=1540
.step x=1541
.step x=1542
.step x=1543
.step x=1544
.step x=1545
.step x=1546
.step x=1547
.step x=1548
.step x=1549
.step x=1550
.step x=1551
.step x=1552
.step x=1553
.step x=1554
.step x=1555
.step x=1556
.step x=1557
.step x=1558
.step x=1559
.step x=1560
.step x=1561
.step x=1562
.step x=1563
.step x=1564
.step x=1565
.step x=1566
.step x=1567
.step x=1568
.step x=1569
.step x=1570
.step x=1571
.step x=1572
.step x=1573
.step x=1574
.step x=1575
.step x=1576
.step x=1577
.step x=1578
.step x=1579
.step x=1580
.step x=1581
.step x=1582
.step x=1583
.step x=1584
.step x=1585
.step x=1586
.step x=1587
.step x=1588
.step x=1589
.step x=1590
.step x=1591
.step x=1592
.step x=1593
.step x=1594
.step x=1595
.step x=1596
.step x=1597
.step x=1598
.step x=1599
.step x=1600
.step x=1601
.step x=1602
.step x=1603
.step x=1604
.step x=1605
.step x=1606
.step x=1607
.step x=1608
.step x=1609
.step x=1610
.step x=1611
.step x=1612
.step x=1613
.step x=1614
.step x=1615
.step x=1616
.step x=1617
.step x=1618
.step x=1619
.step x=1620
.step x=1621
.step x=1622
.step x=1623
.step x=1624
.step x=1625
.step x=1626
.step x=1627
.step x=1628
.step x=1629
.step x=1630
.step x=1631
.step x=1632
.step x=1633
.step x=1634
.step x=1635
.step x=1636
.step x=1637
.step x=1638
.step x=1639
.step x=1640
.step x=1641
.step x=1642
.step x=1643
.step x=1644
.step x=1645
.step x=1646
.step x=1647
.step x=1648
.step x=1649
.step x=1650
.step x=1651
.step x=1652
.step x=1653
.step x=1654
.step x=1655
.step x=1656
.step x=1657
.step x=1658
.step x=1659
.step x=1660
.step x=1661
.step x=1662
.step x=1663
.step x=1664
.step x=1665
.step x=1666
.step x=1667
.step x=1668
.step x=1669
.step x=1670
.step x=1671
.step x=1672
.step x=1673
.step x=1674
.step x=1675
.step x=1676
.step x=1677
.step x=1678
.step x=1679
.step x=1680
.step x=1681
.step x=1682
.step x=1683
.step x=1684
.step x=1685
.step x=1686
.step x=1687
.step x=1688
.step x=1689
.step x=1690
.step x=1691
.step x=1692
.step x=1693
.step x=1694
.step x=1695
.step x=1696
.step x=1697
.step x=1698
.step x=1699
.step x=1700
.step x=1701
.step x=1702
.step x=1703
.step x=1704
.step x=1705
.step x=1706
.step x=1707
.step x=1708
.step x=1709
.step x=1710
.step x=1711
.step x=1712
.step x=1713
.step x=1714
.step x=1715
.step x=1716
.step x=1717
.step x=1718
.step x=1719
.step x=1720
.step x=1721
.step x=1722
.step x=1723
.step x=1724
.step x=1725
.step x=1726
.step x=1727
.step x=1728
.step x=1729
.step x=1730
.step x=1731
.step x=1732
.step x=1733
.step x=1734
.step x=1735
.step x=1736
.step x=1737
.step x=1738
.step x=1739
.step x=1740
.step x=1741
.step x=1742
.step x=1743
.step x=1744
.step x=1745
.step x=1746
.step x=1747
.step x=1748
.step x=1749
.step x=1750
.step x=1751
.step x=1752
.step x=1753
.step x=1754
.step x=1755
.step x=1756
.step x=1757
.step x=1758
.step x=1759
.step x=1760
.step x=1761
.step x=1762
.step x=1763
.step x=1764
.step x=1765
.step x=1766
.step x=1767
.step x=1768
.step x=1769
.step x=1770
.step x=1771
.step x=1772
.step x=1773
.step x=1774
.step x=1775
.step x=1776
.step x=1777
.step x=1778
.step x=1779
.step x=1780
.step x=1781
.step x=1782
.step x=1783
.step x=1784
.step x=1785
.step x=1786
.step x=1787
.step x=1788
.step x=1789
.step x=1790
.step x=1791
.step x=1792
.step x=1793
.step x=1794
.step x=1795
.step x=1796
.step x=1797
.step x=1798
.step x=1799
.step x=1800
.step x=1801
.step x=1802
.step x=1803
.step x=1804
.step x=1805
.step x=1806
.step x=1807
.step x=1808
.step x=1809
.step x=1810
.step x=1811
.step x=1812
.step x=1813
.step x=1814
.step x=1815
.step x=1816
.step x=1817
.step x=1818
.step x=1819
.step x=1820
.step x=1821
.step x=1822
.step x=1823
.step x=1824
.step x=1825
.step x=1826
.step x=1827
.step x=1828
.step x=1829
.step x=1830
.step x=1831
.step x=1832
.step x=1833
.step x=1834
.step x=1835
.step x=1836
.step x=1837
.step x=1838
.step x=1839
.step x=1840
.step x=1841
.step x=1842
.step x=1843
.step x=1844
.step x=1845
.step x=1846
.step x=1847
.step x=1848
.step x=1849
.step x=1850
.step x=1851
.step x=1852
.step x=1853
.step x=1854
.step x=1855
.step x=1856
.step x=1857
.step x=1858
.step x=1859
.step x=1860
.step x=1861
.step x=1862
.step x=1863
.step x=1864
.step x=1865
.step x=1866
.step x=1867
.step x=1868
.step x=1869
.step x=1870
.step x=1871
.step x=1872
.step x=1873
.step x=1874
.step x=1875
.step x=1876
.step x=1877
.step x=1878
.step x=1879
.step x=1880
.step x=1881
.step x=1882
.step x=1883
.step x=1884
.step x=1885
.step x=1886
.step x=1887
.step x=1888
.step x=1889
.step x=1890
.step x=1891
.step x=1892
.step x=1893
.step x=1894
.step x=1895
.step x=1896
.step x=1897
.step x=1898
.step x=1899
.step x=1900
.step x=1901
.step x=1902
.step x=1903
.step x=1904
.step x=1905
.step x=1906
.step x=1907
.step x=1908
.step x=1909
.step x=1910
.step x=1911
.step x=1912
.step x=1913
.step x=1914
.step x=1915
.step x=1916
.step x=1917
.step x=1918
.step x=1919
.step x=1920
.step x=1921
.step x=1922
.step x=1923
.step x=1924
.step x=1925
.step x=1926
.step x=1927
.step x=1928
.step x=1929
.step x=1930
.step x=1931
.step x=1932
.step x=1933
.step x=1934
.step x=1935
.step x=1936
.step x=1937
.step x=1938
.step x=1939
.step x=1940
.step x=1941
.step x=1942
.step x=1943
.step x=1944
.step x=1945
.step x=1946
.step x=1947
.step x=1948
.step x=1949
.step x=1950
.step x=1951
.step x=1952
.step x=1953
.step x=1954
.step x=1955
.step x=1956
.step x=1957
.step x=1958
.step x=1959
.step x=1960
.step x=1961
.step x=1962
.step x=1963
.step x=1964
.step x=1965
.step x=1966
.step x=1967
.step x=1968
.step x=1969
.step x=1970
.step x=1971
.step x=1972
.step x=1973
.step x=1974
.step x=1975
.step x=1976
.step x=1977
.step x=1978
.step x=1979
.step x=1980
.step x=1981
.step x=1982
.step x=1983
.step x=1984
.step x=1985
.step x=1986
.step x=1987
.step x=1988
.step x=1989
.step x=1990
.step x=1991
.step x=1992
.step x=1993
.step x=1994
.step x=1995
.step x=1996
.step x=1997
.step x=1998
.step x=1999
.step x=2000
.step x=2001
.step x=2002
.step x=2003
.step x=2004
.step x=2005
.step x=2006
.step x=2007
.step x=2008
.step x=2009
.step x=2010
.step x=2011
.step x=2012
.step x=2013
.step x=2014
.step x=2015
.step x=2016
.step x=2017
.step x=2018
.step x=2019
.step x=2020
.step x=2021
.step x=2022
.step x=2023
.step x=2024
.step x=2025
.step x=2026
.step x=2027
.step x=2028
.step x=2029
.step x=2030
.step x=2031
.step x=2032
.step x=2033
.step x=2034
.step x=2035
.step x=2036
.step x=2037
.step x=2038
.step x=2039
.step x=2040
.step x=2041
.step x=2042
.step x=2043
.step x=2044
.step x=2045
.step x=2046
.step x=2047
.step x=2048
.step x=2049
.step x=2050
.step x=2051
.step x=2052
.step x=2053
.step x=2054
.step x=2055
.step x=2056
.step x=2057
.step x=2058
.step x=2059
.step x=2060
.step x=2061
.step x=2062
.step x=2063
.step x=2064
.step x=2065
.step x=2066
.step x=2067
.step x=2068
.step x=2069
.step x=2070
.step x=2071
.step x=2072
.step x=2073
.step x=2074
.step x=2075
.step x=2076
.step x=2077
.step x=2078
.step x=2079
.step x=2080
.step x=2081
.step x=2082
.step x=2083
.step x=2084
.step x=2085
.step x=2086
.step x=2087
.step x=2088
.step x=2089
.step x=2090
.step x=2091
.step x=2092
.step x=2093
.step x=2094
.step x=2095
.step x=2096
.step x=2097
.step x=2098
.step x=2099
.step x=2100
.step x=2101
.step x=2102
.step x=2103
.step x=2104
.step x=2105
.step x=2106
.step x=2107
.step x=2108
.step x=2109
.step x=2110
.step x=2111
.step x=2112
.step x=2113
.step x=2114
.step x=2115
.step x=2116
.step x=2117
.step x=2118
.step x=2119
.step x=2120
.step x=2121
.step x=2122
.step x=2123
.step x=2124
.step x=2125
.step x=2126
.step x=2127
.step x=2128
.step x=2129
.step x=2130
.step x=2131
.step x=2132
.step x=2133
.step x=2134
.step x=2135
.step x=2136
.step x=2137
.step x=2138
.step x=2139
.step x=2140
.step x=2141
.step x=2142
.step x=2143
.step x=2144
.step x=2145
.step x=2146
.step x=2147
.step x=2148
.step x=2149
.step x=2150
.step x=2151
.step x=2152
.step x=2153
.step x=2154
.step x=2155
.step x=2156
.step x=2157
.step x=2158
.step x=2159
.step x=2160
.step x=2161
.step x=2162
.step x=2163
.step x=2164
.step x=2165
.step x=2166
.step x=2167
.step x=2168
.step x=2169
.step x=2170
.step x=2171
.step x=2172
.step x=2173
.step x=2174
.step x=2175
.step x=2176
.step x=2177
.step x=2178
.step x=2179
.step x=2180
.step x=2181
.step x=2182
.step x=2183
.step x=2184
.step x=2185
.step x=2186
.step x=2187
.step x=2188
.step x=2189
.step x=2190
.step x=2191
.step x=2192
.step x=2193
.step x=2194
.step x=2195
.step x=2196
.step x=2197
.step x=2198
.step x=2199
.step x=2200
.step x=2201
.step x=2202
.step x=2203
.step x=2204
.step x=2205
.step x=2206
.step x=2207
.step x=2208
.step x=2209
.step x=2210
.step x=2211
.step x=2212
.step x=2213
.step x=2214
.step x=2215
.step x=2216
.step x=2217
.step x=2218
.step x=2219
.step x=2220
.step x=2221
.step x=2222
.step x=2223
.step x=2224
.step x=2225
.step x=2226
.step x=2227
.step x=2228
.step x=2229
.step x=2230
.step x=2231
.step x=2232
.step x=2233
.step x=2234
.step x=2235
.step x=2236
.step x=2237
.step x=2238
.step x=2239
.step x=2240
.step x=2241
.step x=2242
.step x=2243
.step x=2244
.step x=2245
.step x=2246
.step x=2247
.step x=2248
.step x=2249
.step x=2250
.step x=2251
.step x=2252
.step x=2253
.step x=2254
.step x=2255
.step x=2256
.step x=2257
.step x=2258
.step x=2259
.step x=2260
.step x=2261
.step x=2262
.step x=2263
.step x=2264
.step x=2265
.step x=2266
.step x=2267
.step x=2268
.step x=2269
.step x=2270
.step x=2271
.step x=2272
.step x=2273
.step x=2274
.step x=2275
.step x=2276
.step x=2277
.step x=2278
.step x=2279
.step x=2280
.step x=2281
.step x=2282
.step x=2283
.step x=2284
.step x=2285
.step x=2286
.step x=2287
.step x=2288
.step x=2289
.step x=2290
.step x=2291
.step x=2292
.step x=2293
.step x=2294
.step x=2295
.step x=2296
.step x=2297
.step x=2298
.step x=2299
.step x=2300
.step x=2301
.step x=2302
.step x=2303
.step x=2304
.step x=2305
.step x=2306
.step x=2307
.step x=2308
.step x=2309
.step x=2310
.step x=2311
.step x=2312
.step x=2313
.step x=2314
.step x=2315
.step x=2316
.step x=2317
.step x=2318
.step x=2319
.step x=2320
.step x=2321
.step x=2322
.step x=2323
.step x=2324
.step x=2325
.step x=2326
.step x=2327
.step x=2328
.step x=2329
.step x=2330
.step x=2331
.step x=2332
.step x=2333
.step x=2334
.step x=2335
.step x=2336
.step x=2337
.step x=2338
.step x=2339
.step x=2340
.step x=2341
.step x=2342
.step x=2343
.step x=2344
.step x=2345
.step x=2346
.step x=2347
.step x=2348
.step x=2349
.step x=2350
.step x=2351
.step x=2352
.step x=2353
.step x=2354
.step x=2355
.step x=2356
.step x=2357
.step x=2358
.step x=2359
.step x=2360
.step x=2361
.step x=2362
.step x=2363
.step x=2364
.step x=2365
.step x=2366
.step x=2367
.step x=2368
.step x=2369
.step x=2370
.step x=2371
.step x=2372
.step x=2373
.step x=2374
.step x=2375
.step x=2376
.step x=2377
.step x=2378
.step x=2379
.step x=2380
.step x=2381
.step x=2382
.step x=2383
.step x=2384
.step x=2385
.step x=2386
.step x=2387
.step x=2388
.step x=2389
.step x=2390
.step x=2391
.step x=2392
.step x=2393
.step x=2394
.step x=2395
.step x=2396
.step x=2397
.step x=2398
.step x=2399
.step x=2400
.step x=2401
.step x=2402
.step x=2403
.step x=2404
.step x=2405
.step x=2406
.step x=2407
.step x=2408
.step x=2409
.step x=2410
.step x=2411
.step x=2412
.step x=2413
.step x=2414
.step x=2415
.step x=2416
.step x=2417
.step x=2418
.step x=2419
.step x=2420
.step x=2421
.step x=2422
.step x=2423
.step x=2424
.step x=2425
.step x=2426
.step x=2427
.step x=2428
.step x=2429
.step x=2430
.step x=2431
.step x=2432
.step x=2433
.step x=2434
.step x=2435
.step x=2436
.step x=2437
.step x=2438
.step x=2439
.step x=2440
.step x=2441
.step x=2442
.step x=2443
.step x=2444
.step x=2445
.step x=2446
.step x=2447
.step x=2448
.step x=2449
.step x=2450
.step x=2451
.step x=2452
.step x=2453
.step x=2454
.step x=2455
.step x=2456
.step x=2457
.step x=2458
.step x=2459
.step x=2460
.step x=2461
.step x=2462
.step x=2463
.step x=2464
.step x=2465
.step x=2466
.step x=2467
.step x=2468
.step x=2469
.step x=2470
.step x=2471
.step x=2472
.step x=2473
.step x=2474
.step x=2475
.step x=2476
.step x=2477
.step x=2478
.step x=2479
.step x=2480
.step x=2481
.step x=2482
.step x=2483
.step x=2484
.step x=2485
.step x=2486
.step x=2487
.step x=2488
.step x=2489
.step x=2490
.step x=2491
.step x=2492
.step x=2493
.step x=2494
.step x=2495
.step x=2496
.step x=2497
.step x=2498
.step x=2499
.step x=2500
.step x=2501
.step x=2502
.step x=2503
.step x=2504
.step x=2505
.step x=2506
.step x=2507
.step x=2508
.step x=2509
.step x=2510
.step x=2511
.step x=2512
.step x=2513
.step x=2514
.step x=2515
.step x=2516
.step x=2517
.step x=2518
.step x=2519
.step x=2520
.step x=2521
.step x=2522
.step x=2523
.step x=2524
.step x=2525
.step x=2526
.step x=2527
.step x=2528
.step x=2529
.step x=2530
.step x=2531
.step x=2532
.step x=2533
.step x=2534
.step x=2535
.step x=2536
.step x=2537
.step x=2538
.step x=2539
.step x=2540
.step x=2541
.step x=2542
.step x=2543
.step x=2544
.step x=2545
.step x=2546
.step x=2547
.step x=2548
.step x=2549
.step x=2550
.step x=2551
.step x=2552
.step x=2553
.step x=2554
.step x=2555
.step x=2556
.step x=2557
.step x=2558
.step x=2559
.step x=2560
.step x=2561
.step x=2562
.step x=2563
.step x=2564
.step x=2565
.step x=2566
.step x=2567
.step x=2568
.step x=2569
.step x=2570
.step x=2571
.step x=2572
.step x=2573
.step x=2574
.step x=2575
.step x=2576
.step x=2577
.step x=2578
.step x=2579
.step x=2580
.step x=2581
.step x=2582
.step x=2583
.step x=2584
.step x=2585
.step x=2586
.step x=2587
.step x=2588
.step x=2589
.step x=2590
.step x=2591
.step x=2592
.step x=2593
.step x=2594
.step x=2595
.step x=2596
.step x=2597
.step x=2598
.step x=2599
.step x=2600
.step x=2601
.step x=2602
.step x=2603
.step x=2604
.step x=2605
.step x=2606
.step x=2607
.step x=2608
.step x=2609
.step x=2610
.step x=2611
.step x=2612
.step x=2613
.step x=2614
.step x=2615
.step x=2616
.step x=2617
.step x=2618
.step x=2619
.step x=2620
.step x=2621
.step x=2622
.step x=2623
.step x=2624
.step x=2625
.step x=2626
.step x=2627
.step x=2628
.step x=2629
.step x=2630
.step x=2631
.step x=2632
.step x=2633
.step x=2634
.step x=2635
.step x=2636
.step x=2637
.step x=2638
.step x=2639
.step x=2640
.step x=2641
.step x=2642
.step x=2643
.step x=2644
.step x=2645
.step x=2646
.step x=2647
.step x=2648
.step x=2649
.step x=2650
.step x=2651
.step x=2652
.step x=2653
.step x=2654
.step x=2655
.step x=2656
.step x=2657
.step x=2658
.step x=2659
.step x=2660
.step x=2661
.step x=2662
.step x=2663
.step x=2664
.step x=2665
.step x=2666
.step x=2667
.step x=2668
.step x=2669
.step x=2670
.step x=2671
.step x=2672
.step x=2673
.step x=2674
.step x=2675
.step x=2676
.step x=2677
.step x=2678
.step x=2679
.step x=2680
.step x=2681
.step x=2682
.step x=2683
.step x=2684
.step x=2685
.step x=2686
.step x=2687
.step x=2688
.step x=2689
.step x=2690
.step x=2691
.step x=2692
.step x=2693
.step x=2694
.step x=2695
.step x=2696
.step x=2697
.step x=2698
.step x=2699
.step x=2700
.step x=2701
.step x=2702
.step x=2703
.step x=2704
.step x=2705
.step x=2706
.step x=2707
.step x=2708
.step x=2709
.step x=2710
.step x=2711
.step x=2712
.step x=2713
.step x=2714
.step x=2715
.step x=2716
.step x=2717
.step x=2718
.step x=2719
.step x=2720
.step x=2721
.step x=2722
.step x=2723
.step x=2724
.step x=2725
.step x=2726
.step x=2727
.step x=2728
.step x=2729
.step x=2730
.step x=2731
.step x=2732
.step x=2733
.step x=2734
.step x=2735
.step x=2736
.step x=2737
.step x=2738
.step x=2739
.step x=2740
.step x=2741
.step x=2742
.step x=2743
.step x=2744
.step x=2745
.step x=2746
.step x=2747
.step x=2748
.step x=2749
.step x=2750
.step x=2751
.step x=2752
.step x=2753
.step x=2754
.step x=2755
.step x=2756
.step x=2757
.step x=2758
.step x=2759
.step x=2760
.step x=2761
.step x=2762
.step x=2763
.step x=2764
.step x=2765
.step x=2766
.step x=2767
.step x=2768
.step x=2769
.step x=2770
.step x=2771
.step x=2772
.step x=2773
.step x=2774
.step x=2775
.step x=2776
.step x=2777
.step x=2778
.step x=2779
.step x=2780
.step x=2781
.step x=2782
.step x=2783
.step x=2784
.step x=2785
.step x=2786
.step x=2787
.step x=2788
.step x=2789
.step x=2790
.step x=2791
.step x=2792
.step x=2793
.step x=2794
.step x=2795
.step x=2796
.step x=2797
.step x=2798
.step x=2799
.step x=2800
.step x=2801
.step x=2802
.step x=2803
.step x=2804
.step x=2805
.step x=2806
.step x=2807
.step x=2808
.step x=2809
.step x=2810
.step x=2811
.step x=2812
.step x=2813
.step x=2814
.step x=2815
.step x=2816
.step x=2817
.step x=2818
.step x=2819
.step x=2820
.step x=2821
.step x=2822
.step x=2823
.step x=2824
.step x=2825
.step x=2826
.step x=2827
.step x=2828
.step x=2829
.step x=2830
.step x=2831
.step x=2832
.step x=2833
.step x=2834
.step x=2835
.step x=2836
.step x=2837
.step x=2838
.step x=2839
.step x=2840
.step x=2841
.step x=2842
.step x=2843
.step x=2844
.step x=2845
.step x=2846
.step x=2847
.step x=2848
.step x=2849
.step x=2850
.step x=2851
.step x=2852
.step x=2853
.step x=2854
.step x=2855
.step x=2856
.step x=2857
.step x=2858
.step x=2859
.step x=2860
.step x=2861
.step x=2862
.step x=2863
.step x=2864
.step x=2865
.step x=2866
.step x=2867
.step x=2868
.step x=2869
.step x=2870
.step x=2871
.step x=2872
.step x=2873
.step x=2874
.step x=2875
.step x=2876
.step x=2877
.step x=2878
.step x=2879
.step x=2880
.step x=2881
.step x=2882
.step x=2883
.step x=2884
.step x=2885
.step x=2886
.step x=2887
.step x=2888
.step x=2889
.step x=2890
.step x=2891
.step x=2892
.step x=2893
.step x=2894
.step x=2895
.step x=2896
.step x=2897
.step x=2898
.step x=2899
.step x=2900
.step x=2901
.step x=2902
.step x=2903
.step x=2904
.step x=2905
.step x=2906
.step x=2907
.step x=2908
.step x=2909
.step x=2910
.step x=2911
.step x=2912
.step x=2913
.step x=2914
.step x=2915
.step x=2916
.step x=2917
.step x=2918
.step x=2919
.step x=2920
.step x=2921
.step x=2922
.step x=2923
.step x=2924
.step x=2925
.step x=2926
.step x=2927
.step x=2928
.step x=2929
.step x=2930
.step x=2931
.step x=2932
.step x=2933
.step x=2934
.step x=2935
.step x=2936
.step x=2937
.step x=2938
.step x=2939
.step x=2940
.step x=2941
.step x=2942
.step x=2943
.step x=2944
.step x=2945
.step x=2946
.step x=2947
.step x=2948
.step x=2949
.step x=2950
.step x=2951
.step x=2952
.step x=2953
.step x=2954
.step x=2955
.step x=2956
.step x=2957
.step x=2958
.step x=2959
.step x=2960
.step x=2961
.step x=2962
.step x=2963
.step x=2964
.step x=2965
.step x=2966
.step x=2967
.step x=2968
.step x=2969
.step x=2970
.step x=2971
.step x=2972
.step x=2973
.step x=2974
.step x=2975
.step x=2976
.step x=2977
.step x=2978
.step x=2979
.step x=2980
.step x=2981
.step x=2982
.step x=2983
.step x=2984
.step x=2985
.step x=2986
.step x=2987
.step x=2988
.step x=2989
.step x=2990
.step x=2991
.step x=2992
.step x=2993
.step x=2994
.step x=2995
.step x=2996
.step x=2997
.step x=2998
.step x=2999
.step x=3000
.step x=3001
.step x=3002
.step x=3003
.step x=3004
.step x=3005
.step x=3006
.step x=3007
.step x=3008
.step x=3009
.step x=3010
.step x=3011
.step x=3012
.step x=3013
.step x=3014
.step x=3015
.step x=3016
.step x=3017
.step x=3018
.step x=3019
.step x=3020
.step x=3021
.step x=3022
.step x=3023
.step x=3024
.step x=3025
.step x=3026
.step x=3027
.step x=3028
.step x=3029
.step x=3030
.step x=3031
.step x=3032
.step x=3033
.step x=3034
.step x=3035
.step x=3036
.step x=3037
.step x=3038
.step x=3039
.step x=3040
.step x=3041
.step x=3042
.step x=3043
.step x=3044
.step x=3045
.step x=3046
.step x=3047
.step x=3048
.step x=3049
.step x=3050
.step x=3051
.step x=3052
.step x=3053
.step x=3054
.step x=3055
.step x=3056
.step x=3057
.step x=3058
.step x=3059
.step x=3060
.step x=3061
.step x=3062
.step x=3063
.step x=3064
.step x=3065
.step x=3066
.step x=3067
.step x=3068
.step x=3069
.step x=3070
.step x=3071
.step x=3072
.step x=3073
.step x=3074
.step x=3075
.step x=3076
.step x=3077
.step x=3078
.step x=3079
.step x=3080
.step x=3081
.step x=3082
.step x=3083
.step x=3084
.step x=3085
.step x=3086
.step x=3087
.step x=3088
.step x=3089
.step x=3090
.step x=3091
.step x=3092
.step x=3093
.step x=3094
.step x=3095
.step x=3096
.step x=3097
.step x=3098
.step x=3099
.step x=3100
.step x=3101
.step x=3102
.step x=3103
.step x=3104
.step x=3105
.step x=3106
.step x=3107
.step x=3108
.step x=3109
.step x=3110
.step x=3111
.step x=3112
.step x=3113
.step x=3114
.step x=3115
.step x=3116
.step x=3117
.step x=3118
.step x=3119
.step x=3120
.step x=3121
.step x=3122
.step x=3123
.step x=3124
.step x=3125
.step x=3126
.step x=3127
.step x=3128
.step x=3129
.step x=3130
.step x=3131
.step x=3132
.step x=3133
.step x=3134
.step x=3135
.step x=3136
.step x=3137
.step x=3138
.step x=3139
.step x=3140
.step x=3141
.step x=3142
.step x=3143
.step x=3144
.step x=3145
.step x=3146
.step x=3147
.step x=3148
.step x=3149
.step x=3150
.step x=3151
.step x=3152
.step x=3153
.step x=3154
.step x=3155
.step x=3156
.step x=3157
.step x=3158
.step x=3159
.step x=3160
.step x=3161
.step x=3162
.step x=3163
.step x=3164
.step x=3165
.step x=3166
.step x=3167
.step x=3168
.step x=3169
.step x=3170
.step x=3171
.step x=3172
.step x=3173
.step x=3174
.step x=3175
.step x=3176
.step x=3177
.step x=3178
.step x=3179
.step x=3180
.step x=3181
.step x=3182
.step x=3183
.step x=3184
.step x=3185
.step x=3186
.step x=3187
.step x=3188
.step x=3189
.step x=3190
.step x=3191
.step x=3192
.step x=3193
.step x=3194
.step x=3195
.step x=3196
.step x=3197
.step x=3198
.step x=3199
.step x=3200
.step x=3201
.step x=3202
.step x=3203
.step x=3204
.step x=3205
.step x=3206
.step x=3207
.step x=3208
.step x=3209
.step x=3210
.step x=3211
.step x=3212
.step x=3213
.step x=3214
.step x=3215
.step x=3216
.step x=3217
.step x=3218
.step x=3219
.step x=3220
.step x=3221
.step x=3222
.step x=3223
.step x=3224
.step x=3225
.step x=3226
.step x=3227
.step x=3228
.step x=3229
.step x=3230
.step x=3231
.step x=3232
.step x=3233
.step x=3234
.step x=3235
.step x=3236
.step x=3237
.step x=3238
.step x=3239
.step x=3240
.step x=3241
.step x=3242
.step x=3243
.step x=3244
.step x=3245
.step x=3246
.step x=3247
.step x=3248
.step x=3249
.step x=3250
.step x=3251
.step x=3252
.step x=3253
.step x=3254
.step x=3255
.step x=3256
.step x=3257
.step x=3258
.step x=3259
.step x=3260
.step x=3261
.step x=3262
.step x=3263
.step x=3264
.step x=3265
.step x=3266
.step x=3267
.step x=3268
.step x=3269
.step x=3270
.step x=3271
.step x=3272
.step x=3273
.step x=3274
.step x=3275
.step x=3276
.step x=3277
.step x=3278
.step x=3279
.step x=3280
.step x=3281
.step x=3282
.step x=3283
.step x=3284
.step x=3285
.step x=3286
.step x=3287
.step x=3288
.step x=3289
.step x=3290
.step x=3291
.step x=3292
.step x=3293
.step x=3294
.step x=3295
.step x=3296
.step x=3297
.step x=3298
.step x=3299
.step x=3300
.step x=3301
.step x=3302
.step x=3303
.step x=3304
.step x=3305
.step x=3306
.step x=3307
.step x=3308
.step x=3309
.step x=3310
.step x=3311
.step x=3312
.step x=3313
.step x=3314
.step x=3315
.step x=3316
.step x=3317
.step x=3318
.step x=3319
.step x=3320
.step x=3321
.step x=3322
.step x=3323
.step x=3324
.step x=3325
.step x=3326
.step x=3327
.step x=3328
.step x=3329
.step x=3330
.step x=3331
.step x=3332
.step x=3333
.step x=3334
.step x=3335
.step x=3336
.step x=3337
.step x=3338
.step x=3339
.step x=3340
.step x=3341
.step x=3342
.step x=3343
.step x=3344
.step x=3345
.step x=3346
.step x=3347
.step x=3348
.step x=3349
.step x=3350
.step x=3351
.step x=3352
.step x=3353
.step x=3354
.step x=3355
.step x=3356
.step x=3357
.step x=3358
.step x=3359
.step x=3360
.step x=3361
.step x=3362
.step x=3363
.step x=3364
.step x=3365
.step x=3366
.step x=3367
.step x=3368
.step x=3369
.step x=3370
.step x=3371
.step x=3372
.step x=3373
.step x=3374
.step x=3375
.step x=3376
.step x=3377
.step x=3378
.step x=3379
.step x=3380
.step x=3381
.step x=3382
.step x=3383
.step x=3384
.step x=3385
.step x=3386
.step x=3387
.step x=3388
.step x=3389
.step x=3390
.step x=3391
.step x=3392
.step x=3393
.step x=3394
.step x=3395
.step x=3396
.step x=3397
.step x=3398
.step x=3399
.step x=3400
.step x=3401
.step x=3402
.step x=3403
.step x=3404
.step x=3405
.step x=3406
.step x=3407
.step x=3408
.step x=3409
.step x=3410
.step x=3411
.step x=3412
.step x=3413
.step x=3414
.step x=3415
.step x=3416
.step x=3417
.step x=3418
.step x=3419
.step x=3420
.step x=3421
.step x=3422
.step x=3423
.step x=3424
.step x=3425
.step x=3426
.step x=3427
.step x=3428
.step x=3429
.step x=3430
.step x=3431
.step x=3432
.step x=3433
.step x=3434
.step x=3435
.step x=3436
.step x=3437
.step x=3438
.step x=3439
.step x=3440
.step x=3441
.step x=3442
.step x=3443
.step x=3444
.step x=3445
.step x=3446
.step x=3447
.step x=3448
.step x=3449
.step x=3450
.step x=3451
.step x=3452
.step x=3453
.step x=3454
.step x=3455
.step x=3456
.step x=3457
.step x=3458
.step x=3459
.step x=3460
.step x=3461
.step x=3462
.step x=3463
.step x=3464
.step x=3465
.step x=3466
.step x=3467
.step x=3468
.step x=3469
.step x=3470
.step x=3471
.step x=3472
.step x=3473
.step x=3474
.step x=3475
.step x=3476
.step x=3477
.step x=3478
.step x=3479
.step x=3480
.step x=3481
.step x=3482
.step x=3483
.step x=3484
.step x=3485
.step x=3486
.step x=3487
.step x=3488
.step x=3489
.step x=3490
.step x=3491
.step x=3492
.step x=3493
.step x=3494
.step x=3495
.step x=3496
.step x=3497
.step x=3498
.step x=3499
.step x=3500
.step x=3501
.step x=3502
.step x=3503
.step x=3504
.step x=3505
.step x=3506
.step x=3507
.step x=3508
.step x=3509
.step x=3510
.step x=3511
.step x=3512
.step x=3513
.step x=3514
.step x=3515
.step x=3516
.step x=3517
.step x=3518
.step x=3519
.step x=3520
.step x=3521
.step x=3522
.step x=3523
.step x=3524
.step x=3525
.step x=3526
.step x=3527
.step x=3528
.step x=3529
.step x=3530
.step x=3531
.step x=3532
.step x=3533
.step x=3534
.step x=3535
.step x=3536
.step x=3537
.step x=3538
.step x=3539
.step x=3540
.step x=3541
.step x=3542
.step x=3543
.step x=3544
.step x=3545
.step x=3546
.step x=3547
.step x=3548
.step x=3549
.step x=3550
.step x=3551
.step x=3552
.step x=3553
.step x=3554
.step x=3555
.step x=3556
.step x=3557
.step x=3558
.step x=3559
.step x=3560
.step x=3561
.step x=3562
.step x=3563
.step x=3564
.step x=3565
.step x=3566
.step x=3567
.step x=3568
.step x=3569
.step x=3570
.step x=3571
.step x=3572
.step x=3573
.step x=3574
.step x=3575
.step x=3576
.step x=3577
.step x=3578
.step x=3579
.step x=3580
.step x=3581
.step x=3582
.step x=3583
.step x=3584
.step x=3585
.step x=3586
.step x=3587
.step x=3588
.step x=3589
.step x=3590
.step x=3591
.step x=3592
.step x=3593
.step x=3594
.step x=3595
.step x=3596
.step x=3597
.step x=3598
.step x=3599
.step x=3600
.step x=3601
.step x=3602
.step x=3603
.step x=3604
.step x=3605
.step x=3606
.step x=3607
.step x=3608
.step x=3609
.step x=3610
.step x=3611
.step x=3612
.step x=3613
.step x=3614
.step x=3615
.step x=3616
.step x=3617
.step x=3618
.step x=3619
.step x=3620
.step x=3621
.step x=3622
.step x=3623
.step x=3624
.step x=3625
.step x=3626
.step x=3627
.step x=3628
.step x=3629
.step x=3630
.step x=3631
.step x=3632
.step x=3633
.step x=3634
.step x=3635
.step x=3636
.step x=3637
.step x=3638
.step x=3639
.step x=3640
.step x=3641
.step x=3642
.step x=3643
.step x=3644
.step x=3645
.step x=3646
.step x=3647
.step x=3648
.step x=3649
.step x=3650
.step x=3651
.step x=3652
.step x=3653
.step x=3654
.step x=3655
.step x=3656
.step x=3657
.step x=3658
.step x=3659
.step x=3660
.step x=3661
.step x=3662
.step x=3663
.step x=3664
.step x=3665
.step x=3666
.step x=3667
.step x=3668
.step x=3669
.step x=3670
.step x=3671
.step x=3672
.step x=3673
.step x=3674
.step x=3675
.step x=3676
.step x=3677
.step x=3678
.step x=3679
.step x=3680
.step x=3681
.step x=3682
.step x=3683
.step x=3684
.step x=3685
.step x=3686
.step x=3687
.step x=3688
.step x=3689
.step x=3690
.step x=3691
.step x=3692
.step x=3693
.step x=3694
.step x=3695
.step x=3696
.step x=3697
.step x=3698
.step x=3699
.step x=3700
.step x=3701
.step x=3702
.step x=3703
.step x=3704
.step x=3705
.step x=3706
.step x=3707
.step x=3708
.step x=3709
.step x=3710
.step x=3711
.step x=3712
.step x=3713
.step x=3714
.step x=3715
.step x=3716
.step x=3717
.step x=3718
.step x=3719
.step x=3720
.step x=3721
.step x=3722
.step x=3723
.step x=3724
.step x=3725
.step x=3726
.step x=3727
.step x=3728
.step x=3729
.step x=3730
.step x=3731
.step x=3732
.step x=3733
.step x=3734
.step x=3735
.step x=3736
.step x=3737
.step x=3738
.step x=3739
.step x=3740
.step x=3741
.step x=3742
.step x=3743
.step x=3744
.step x=3745
.step x=3746
.step x=3747
.step x=3748
.step x=3749
.step x=3750
.step x=3751
.step x=3752
.step x=3753
.step x=3754
.step x=3755
.step x=3756
.step x=3757
.step x=3758
.step x=3759
.step x=3760
.step x=3761
.step x=3762
.step x=3763
.step x=3764
.step x=3765
.step x=3766
.step x=3767
.step x=3768
.step x=3769
.step x=3770
.step x=3771
.step x=3772
.step x=3773
.step x=3774
.step x=3775
.step x=3776
.step x=3777
.step x=3778
.step x=3779
.step x=3780
.step x=3781
.step x=3782
.step x=3783
.step x=3784
.step x=3785
.step x=3786
.step x=3787
.step x=3788
.step x=3789
.step x=3790
.step x=3791
.step x=3792
.step x=3793
.step x=3794
.step x=3795
.step x=3796
.step x=3797
.step x=3798
.step x=3799
.step x=3800
.step x=3801
.step x=3802
.step x=3803
.step x=3804
.step x=3805
.step x=3806
.step x=3807
.step x=3808
.step x=3809
.step x=3810
.step x=3811
.step x=3812
.step x=3813
.step x=3814
.step x=3815
.step x=3816
.step x=3817
.step x=3818
.step x=3819
.step x=3820
.step x=3821
.step x=3822
.step x=3823
.step x=3824
.step x=3825
.step x=3826
.step x=3827
.step x=3828
.step x=3829
.step x=3830
.step x=3831
.step x=3832
.step x=3833
.step x=3834
.step x=3835
.step x=3836
.step x=3837
.step x=3838
.step x=3839
.step x=3840
.step x=3841
.step x=3842
.step x=3843
.step x=3844
.step x=3845
.step x=3846
.step x=3847
.step x=3848
.step x=3849
.step x=3850
.step x=3851
.step x=3852
.step x=3853
.step x=3854
.step x=3855
.step x=3856
.step x=3857
.step x=3858
.step x=3859
.step x=3860
.step x=3861
.step x=3862
.step x=3863
.step x=3864
.step x=3865
.step x=3866
.step x=3867
.step x=3868
.step x=3869
.step x=3870
.step x=3871
.step x=3872
.step x=3873
.step x=3874
.step x=3875
.step x=3876
.step x=3877
.step x=3878
.step x=3879
.step x=3880
.step x=3881
.step x=3882
.step x=3883
.step x=3884
.step x=3885
.step x=3886
.step x=3887
.step x=3888
.step x=3889
.step x=3890
.step x=3891
.step x=3892
.step x=3893
.step x=3894
.step x=3895
.step x=3896
.step x=3897
.step x=3898
.step x=3899
.step x=3900
.step x=3901
.step x=3902
.step x=3903
.step x=3904
.step x=3905
.step x=3906
.step x=3907
.step x=3908
.step x=3909
.step x=3910
.step x=3911
.step x=3912
.step x=3913
.step x=3914
.step x=3915
.step x=3916
.step x=3917
.step x=3918
.step x=3919
.step x=3920
.step x=3921
.step x=3922
.step x=3923
.step x=3924
.step x=3925
.step x=3926
.step x=3927
.step x=3928
.step x=3929
.step x=3930
.step x=3931
.step x=3932
.step x=3933
.step x=3934
.step x=3935
.step x=3936
.step x=3937
.step x=3938
.step x=3939
.step x=3940
.step x=3941
.step x=3942
.step x=3943
.step x=3944
.step x=3945
.step x=3946
.step x=3947
.step x=3948
.step x=3949
.step x=3950
.step x=3951
.step x=3952
.step x=3953
.step x=3954
.step x=3955
.step x=3956
.step x=3957
.step x=3958
.step x=3959
.step x=3960
.step x=3961
.step x=3962
.step x=3963
.step x=3964
.step x=3965
.step x=3966
.step x=3967
.step x=3968
.step x=3969
.step x=3970
.step x=3971
.step x=3972
.step x=3973
.step x=3974
.step x=3975
.step x=3976
.step x=3977
.step x=3978
.step x=3979
.step x=3980
.step x=3981
.step x=3982
.step x=3983
.step x=3984
.step x=3985
.step x=3986
.step x=3987
.step x=3988
.step x=3989
.step x=3990
.step x=3991
.step x=3992
.step x=3993
.step x=3994
.step x=3995
.step x=3996
.step x=3997
.step x=3998
.step x=3999
.step x=4000
.step x=4001
.step x=4002
.step x=4003
.step x=4004
.step x=4005
.step x=4006
.step x=4007
.step x=4008
.step x=4009
.step x=4010
.step x=4011
.step x=4012
.step x=4013
.step x=4014
.step x=4015
.step x=4016
.step x=4017
.step x=4018
.step x=4019
.step x=4020
.step x=4021
.step x=4022
.step x=4023
.step x=4024
.step x=4025
.step x=4026
.step x=4027
.step x=4028
.step x=4029
.step x=4030
.step x=4031
.step x=4032
.step x=4033
.step x=4034
.step x=4035
.step x=4036
.step x=4037
.step x=4038
.step x=4039
.step x=4040
.step x=4041
.step x=4042
.step x=4043
.step x=4044
.step x=4045
.step x=4046
.step x=4047
.step x=4048
.step x=4049
.step x=4050
.step x=4051
.step x=4052
.step x=4053
.step x=4054
.step x=4055
.step x=4056
.step x=4057
.step x=4058
.step x=4059
.step x=4060
.step x=4061
.step x=4062
.step x=4063
.step x=4064
.step x=4065
.step x=4066
.step x=4067
.step x=4068
.step x=4069
.step x=4070
.step x=4071
.step x=4072
.step x=4073
.step x=4074
.step x=4075
.step x=4076
.step x=4077
.step x=4078
.step x=4079
.step x=4080
.step x=4081
.step x=4082
.step x=4083
.step x=4084
.step x=4085
.step x=4086
.step x=4087
.step x=4088
.step x=4089
.step x=4090
.step x=4091
.step x=4092
.step x=4093
.step x=4094
.step x=4095
.step x=4096
.step x=4097
Total elapsed time: 3275.204 seconds.

Files loaded:
C:\Users\SNA1BP\Documents\Masters-thesis\LTspice\Numpad_clean_for_presentation.net
C:\Users\SNA1BP\AppData\Local\LTspice\lib\sub\opamp.sub
C:\Users\SNA1BP\AppData\Local\LTspice\lib\sub\LTC.lib
C:\Users\SNA1BP\Documents\Masters-thesis\LTspice\TL431\TL431.mod

